data_I
_chemical_name_common  '/home/zhangsd/repos/MofS-CGCNN/ML/data/WS24/clean_cifs/QOSXUS'
_cell_length_a 25.91640
_cell_length_b 24.88260
_cell_length_c 17.95420
_cell_angle_alpha 90.00000
_cell_angle_beta  93.20600
_cell_angle_gamma 90.00000
_space_group_name_H-M_alt      'P 1'


loop_
_space_group_symop_operation_xyz
  'x, y, z' 

loop_
_atom_site_label
_atom_site_fract_x
_atom_site_fract_y
_atom_site_fract_z
_atom_site_type_symbol
C          0.0     0.25     0.25     C
C          0.0   0.3318     0.75     C
C          0.0   0.6682     0.25     C
C          0.0     0.75     0.75     C
C        0.004   0.1582   0.8655     C
C        0.004   0.8418   0.3655     C
C         0.01    0.053    0.869     C
C         0.01    0.947    0.369     C
C       0.0199   0.4137   0.7822     C
C       0.0199   0.5863   0.2822     C
N        0.022    0.262    0.214     N
N        0.022    0.738    0.714     N
C       0.0248   0.2087   0.8532     C
C       0.0248   0.7913   0.3532     C
C       0.0322   0.1123   0.8512     C
C       0.0322   0.8877   0.3512     C
N        0.034    0.232    0.236     N
N        0.034    0.768    0.736     N
N       0.0359   0.3606   0.7866     N
N       0.0359   0.6394   0.2866     N
C        0.067   0.1542   0.0637     C
C        0.067   0.8458   0.5637     C
C        0.074   0.2132   0.8265     C
C        0.074   0.7868   0.3265     C
C       0.0793   0.3631   0.0733     C
C       0.0793   0.6369   0.5733     C
C       0.0806   0.3791   0.0023     C
C       0.0806   0.6209   0.5023     C
C       0.0814   0.1168   0.8245     C
C       0.0814   0.8832   0.3245     C
N       0.0848   0.3096    0.075     N
N       0.0848   0.6904    0.575     N
C       0.0859   0.1057   0.0404     C
C       0.0859   0.8943   0.5404     C
C       0.0868   0.3355     0.96     C
C       0.0868   0.6645     0.46     C
N       0.0894   0.2926   0.0049     N
N       0.0894   0.7074   0.5049     N
Zn     0.09385  0.24968  0.15599    Zn
Zn     0.09385  0.75032  0.65599    Zn
Zn     0.09535  0.33216   0.8481    Zn
Zn     0.09535  0.66784   0.3481    Zn
C        0.101    0.467    0.534     C
C        0.101    0.533    0.034     C
C       0.1022   0.1672   0.8122     C
C       0.1022   0.8328   0.3122     C
C       0.1051   0.1787   0.1079     C
C       0.1051   0.8213   0.6079     C
N       0.1081   0.2596   0.8169     N
N       0.1081   0.7404   0.3169     N
N       0.1357   0.1004   0.0702     N
N       0.1357   0.8996   0.5702     N
C       0.1471   0.4849    0.151     C
C       0.1471   0.5151    0.651     C
C       0.1472   0.4973    0.578     C
C       0.1472   0.5027    0.078     C
N       0.1475   0.1455   0.1119     N
N       0.1475   0.8545   0.6119     N
C       0.1482   0.2355   0.7997     C
C       0.1482   0.7645   0.2997     C
N       0.1542   0.1863   0.7827     N
N       0.1542   0.8137   0.2827     N
N       0.1566   0.3766   0.8429     N
N       0.1566   0.6234   0.3429     N
C       0.1577   0.2689    0.218     C
C       0.1577   0.7311    0.718     C
C        0.166   0.0548   0.5757     C
C        0.166   0.9452   0.0757     C
C       0.1698   0.1064   0.6182     C
C       0.1698   0.8936   0.1182     C
C       0.1765   0.3553      0.7     C
C       0.1765   0.6447      0.2     C
C       0.1798   0.2457   0.2781     C
C       0.1798   0.7543   0.7781     C
C       0.1865   0.3786   0.7696     C
C       0.1865   0.6214   0.2696     C
N       0.1881   0.3086   0.1981     N
N       0.1881   0.6914   0.6981     N
C       0.1882   0.4548   0.1817     C
C       0.1882   0.5452   0.6817     C
C       0.1885   0.4902   0.0349     C
C       0.1885   0.5098   0.5349     C
C       0.1931   0.3935   0.8827     C
C       0.1931   0.6065   0.3827     C
N       0.1956   0.0163   0.6029     N
N       0.1956   0.9837   0.1029     N
N       0.1969    0.092    0.677     N
N       0.1969    0.908    0.177     N
C       0.2059   0.0938   0.9127     C
C       0.2059   0.9062   0.4127     C
Zn     0.20773  0.05517  0.07225    Zn
Zn     0.20773  0.94483  0.57225    Zn
C       0.2097   0.0405   0.6648     C
C       0.2097   0.9595   0.1648     C
Zn     0.21027  0.13804  0.76309    Zn
Zn     0.21027  0.86196  0.26309    Zn
C       0.2125   0.3595   0.6458     C
C       0.2125   0.6405   0.1458     C
N       0.2208    0.064   0.9609     N
N       0.2208    0.936   0.4609     N
C       0.2237   0.2711   0.2954     C
C       0.2237   0.7289   0.7954     C
N        0.227   0.0914   0.8505     N
N        0.227   0.9086   0.3505     N
N       0.2289     0.31    0.246     N
N       0.2289     0.69    0.746     N
C       0.2295   0.4423   0.1386     C
C       0.2295   0.5577   0.6386     C
C       0.2297     0.46   0.0652     C
C       0.2297     0.54   0.5652     C
C       0.2314   0.0898    0.269     C
C       0.2314   0.9102    0.769     C
N       0.2321   0.4158   0.8675     N
N       0.2321   0.5842   0.3675     N
C       0.2326   0.4061   0.7852     C
C       0.2326   0.5939   0.2852     C
C       0.2414    0.113   0.3387     C
C       0.2414    0.887   0.8387     C
C       0.2586    0.387   0.6613     C
C       0.2586    0.613   0.1613     C
C       0.2674   0.0939   0.2148     C
C       0.2674   0.9061   0.7148     C
N       0.2679   0.0842   0.1325     N
N       0.2679   0.9158   0.6325     N
C       0.2686   0.4102    0.731     C
C       0.2686   0.5898    0.231     C
C       0.2703     0.04   0.9348     C
C       0.2703     0.96   0.4348     C
C       0.2705   0.0577   0.8614     C
C       0.2705   0.9423   0.3614     C
N       0.2711     0.19    0.754     N
N       0.2711     0.81    0.254     N
N        0.273   0.4086   0.1495     N
N        0.273   0.5914   0.6495     N
C       0.2763   0.2289   0.7046     C
C       0.2763   0.7711   0.2046     C
N       0.2792    0.436   0.0391     N
N       0.2792    0.564   0.5391     N
C       0.2875   0.1405   0.3542     C
C       0.2875   0.8595   0.8542     C
Zn     0.28973  0.36196  0.23691    Zn
Zn     0.28973  0.63804  0.73691    Zn
C       0.2903   0.4595   0.3352     C
C       0.2903   0.5405   0.8352     C
Zn     0.29227  0.44483  0.92775    Zn
Zn     0.29227  0.55517  0.42775    Zn
C       0.2941   0.4062   0.0873     C
C       0.2941   0.5938   0.5873     C
N       0.3031    0.408    0.323     N
N       0.3031    0.592    0.823     N
N       0.3044   0.4837   0.3971     N
N       0.3044   0.5163   0.8971     N
C       0.3069   0.1065   0.1173     C
C       0.3069   0.8935   0.6173     C
C       0.3115   0.0098   0.9651     C
C       0.3115   0.9902   0.4651     C
C       0.3118   0.0452   0.8183     C
C       0.3118   0.9548   0.3183     C
N       0.3119   0.1914   0.8019     N
N       0.3119   0.8086   0.3019     N
C       0.3135   0.1214   0.2304     C
C       0.3135   0.8786   0.7304     C
C       0.3202   0.2543   0.7219     C
C       0.3202   0.7457   0.2219     C
C       0.3235   0.1447      0.3     C
C       0.3235   0.8553      0.8     C
C       0.3302   0.3936   0.3818     C
C       0.3302   0.6064   0.8818     C
C        0.334   0.4452   0.4243     C
C        0.334   0.5548   0.9243     C
C       0.3423   0.2311    0.782     C
C       0.3423   0.7689    0.282     C
N       0.3434   0.1234   0.1571     N
N       0.3434   0.8766   0.6571     N
N       0.3458   0.3137   0.2173     N
N       0.3458   0.6863   0.7173     N
C       0.3518   0.2645   0.2003     C
C       0.3518   0.7355   0.7003     C
N       0.3525   0.3545   0.8881     N
N       0.3525   0.6455   0.3881     N
C       0.3528   0.0027    0.422     C
C       0.3528   0.9973    0.922     C
C       0.3529   0.0151    0.849     C
C       0.3529   0.9849    0.349     C
N       0.3643   0.3996   0.9298     N
N       0.3643   0.6004   0.4298     N
N       0.3919   0.2404   0.1831     N
N       0.3919   0.7596   0.6831     N
C       0.3949   0.3213   0.8921     C
C       0.3949   0.6787   0.3921     C
C       0.3978   0.3328   0.1878     C
C       0.3978   0.6672   0.6878     C
C        0.399    0.033    0.466     C
C        0.399    0.967    0.966     C
Zn     0.40465  0.16784   0.1519    Zn
Zn     0.40465  0.83216   0.6519    Zn
Zn     0.40615  0.25032  0.84401    Zn
Zn     0.40615  0.74968  0.34401    Zn
N       0.4106   0.2074   0.9951     N
N       0.4106   0.7926   0.4951     N
C       0.4132   0.1645     0.04     C
C       0.4132   0.8355     0.54     C
C       0.4141   0.3943   0.9596     C
C       0.4141   0.6057   0.4596     C
N       0.4152   0.1904    0.925     N
N       0.4152   0.8096    0.425     N
C       0.4186   0.3832   0.1755     C
C       0.4186   0.6168   0.6755     C
C       0.4194   0.1209   0.9977     C
C       0.4194   0.8791   0.4977     C
C       0.4207   0.1369   0.9267     C
C       0.4207   0.8631   0.4267     C
C        0.426   0.2868   0.1735     C
C        0.426   0.7132   0.6735     C
C        0.433   0.3458   0.9363     C
C        0.433   0.6542   0.4363     C
N       0.4641   0.1394   0.2134     N
N       0.4641   0.8606   0.7134     N
N        0.466    0.268    0.764     N
N        0.466    0.732    0.264     N
C       0.4678   0.3877   0.1488     C
C       0.4678   0.6123   0.6488     C
C       0.4752   0.2913   0.1468     C
C       0.4752   0.7087   0.6468     C
N        0.478    0.238    0.786     N
N        0.478    0.762    0.286     N
C       0.4801   0.0863   0.2178     C
C       0.4801   0.9137   0.7178     C
C         0.49    0.447    0.131     C
C         0.49    0.553    0.631     C
C        0.496   0.3418   0.1345     C
C        0.496   0.6582   0.6345     C
C          0.5   0.1682     0.25     C
C          0.5     0.25     0.75     C
C          0.5     0.75     0.25     C
C          0.5   0.8318     0.75     C
C        0.504   0.3418   0.3655     C
C        0.504   0.6582   0.8655     C
C         0.51    0.447    0.369     C
C         0.51    0.553    0.869     C
C       0.5199   0.0863   0.2822     C
C       0.5199   0.9137   0.7822     C
N        0.522    0.238    0.714     N
N        0.522    0.762    0.214     N
C       0.5248   0.2913   0.3532     C
C       0.5248   0.7087   0.8532     C
C       0.5322   0.3877   0.3512     C
C       0.5322   0.6123   0.8512     C
N        0.534    0.268    0.736     N
N        0.534    0.732    0.236     N
N       0.5359   0.1394   0.2866     N
N       0.5359   0.8606   0.7866     N
C        0.567   0.3458   0.5637     C
C        0.567   0.6542   0.0637     C
C        0.574   0.2868   0.3265     C
C        0.574   0.7132   0.8265     C
C       0.5793   0.1369   0.5733     C
C       0.5793   0.8631   0.0733     C
C       0.5806   0.1209   0.5023     C
C       0.5806   0.8791   0.0023     C
C       0.5814   0.3832   0.3245     C
C       0.5814   0.6168   0.8245     C
N       0.5848   0.1904    0.575     N
N       0.5848   0.8096    0.075     N
C       0.5859   0.3943   0.5404     C
C       0.5859   0.6057   0.0404     C
C       0.5868   0.1645     0.46     C
C       0.5868   0.8355     0.96     C
N       0.5894   0.2074   0.5049     N
N       0.5894   0.7926   0.0049     N
Zn     0.59385  0.25032  0.65599    Zn
Zn     0.59385  0.74968  0.15599    Zn
Zn     0.59535  0.16784   0.3481    Zn
Zn     0.59535  0.83216   0.8481    Zn
C        0.601    0.033    0.034     C
C        0.601    0.967    0.534     C
C       0.6022   0.3328   0.3122     C
C       0.6022   0.6672   0.8122     C
C       0.6051   0.3213   0.6079     C
C       0.6051   0.6787   0.1079     C
N       0.6081   0.2404   0.3169     N
N       0.6081   0.7596   0.8169     N
N       0.6357   0.3996   0.5702     N
N       0.6357   0.6004   0.0702     N
C       0.6471   0.0151    0.651     C
C       0.6471   0.9849    0.151     C
C       0.6472   0.0027    0.078     C
C       0.6472   0.9973    0.578     C
N       0.6475   0.3545   0.6119     N
N       0.6475   0.6455   0.1119     N
C       0.6482   0.2645   0.2997     C
C       0.6482   0.7355   0.7997     C
N       0.6542   0.3137   0.2827     N
N       0.6542   0.6863   0.7827     N
N       0.6566   0.1234   0.3429     N
N       0.6566   0.8766   0.8429     N
C       0.6577   0.2311    0.718     C
C       0.6577   0.7689    0.218     C
C        0.666   0.4452   0.0757     C
C        0.666   0.5548   0.5757     C
C       0.6698   0.3936   0.1182     C
C       0.6698   0.6064   0.6182     C
C       0.6765   0.1447      0.2     C
C       0.6765   0.8553      0.7     C
C       0.6798   0.2543   0.7781     C
C       0.6798   0.7457   0.2781     C
C       0.6865   0.1214   0.2696     C
C       0.6865   0.8786   0.7696     C
N       0.6881   0.1914   0.6981     N
N       0.6881   0.8086   0.1981     N
C       0.6882   0.0452   0.6817     C
C       0.6882   0.9548   0.1817     C
C       0.6885   0.0098   0.5349     C
C       0.6885   0.9902   0.0349     C
C       0.6931   0.1065   0.3827     C
C       0.6931   0.8935   0.8827     C
N       0.6956   0.4837   0.1029     N
N       0.6956   0.5163   0.6029     N
N       0.6969    0.408    0.177     N
N       0.6969    0.592    0.677     N
C       0.7059   0.4062   0.4127     C
C       0.7059   0.5938   0.9127     C
Zn     0.70773  0.44483  0.57225    Zn
Zn     0.70773  0.55517  0.07225    Zn
C       0.7097   0.4595   0.1648     C
C       0.7097   0.5405   0.6648     C
Zn     0.71027  0.36196  0.26309    Zn
Zn     0.71027  0.63804  0.76309    Zn
C       0.7125   0.1405   0.1458     C
C       0.7125   0.8595   0.6458     C
N       0.7208    0.436   0.4609     N
N       0.7208    0.564   0.9609     N
C       0.7237   0.2289   0.7954     C
C       0.7237   0.7711   0.2954     C
N        0.727   0.4086   0.3505     N
N        0.727   0.5914   0.8505     N
N       0.7289     0.19    0.746     N
N       0.7289     0.81    0.246     N
C       0.7295   0.0577   0.6386     C
C       0.7295   0.9423   0.1386     C
C       0.7297     0.04   0.5652     C
C       0.7297     0.96   0.0652     C
C       0.7314   0.4102    0.769     C
C       0.7314   0.5898    0.269     C
N       0.7321   0.0842   0.3675     N
N       0.7321   0.9158   0.8675     N
C       0.7326   0.0939   0.2852     C
C       0.7326   0.9061   0.7852     C
C       0.7414    0.387   0.8387     C
C       0.7414    0.613   0.3387     C
C       0.7586    0.113   0.1613     C
C       0.7586    0.887   0.6613     C
C       0.7674   0.4061   0.7148     C
C       0.7674   0.5939   0.2148     C
N       0.7679   0.4158   0.6325     N
N       0.7679   0.5842   0.1325     N
C       0.7686   0.0898    0.231     C
C       0.7686   0.9102    0.731     C
C       0.7703     0.46   0.4348     C
C       0.7703     0.54   0.9348     C
C       0.7705   0.4423   0.3614     C
C       0.7705   0.5577   0.8614     C
N       0.7711     0.31    0.254     N
N       0.7711     0.69    0.754     N
N        0.773   0.0914   0.6495     N
N        0.773   0.9086   0.1495     N
C       0.7763   0.2711   0.2046     C
C       0.7763   0.7289   0.7046     C
N       0.7792    0.064   0.5391     N
N       0.7792    0.936   0.0391     N
C       0.7875   0.3595   0.8542     C
C       0.7875   0.6405   0.3542     C
Zn     0.78973  0.13804  0.73691    Zn
Zn     0.78973  0.86196  0.23691    Zn
C       0.7903   0.0405   0.8352     C
C       0.7903   0.9595   0.3352     C
Zn     0.79227  0.05517  0.42775    Zn
Zn     0.79227  0.94483  0.92775    Zn
C       0.7941   0.0938   0.5873     C
C       0.7941   0.9062   0.0873     C
N       0.8031    0.092    0.823     N
N       0.8031    0.908    0.323     N
N       0.8044   0.0163   0.8971     N
N       0.8044   0.9837   0.3971     N
C       0.8069   0.3935   0.6173     C
C       0.8069   0.6065   0.1173     C
C       0.8115   0.4902   0.4651     C
C       0.8115   0.5098   0.9651     C
C       0.8118   0.4548   0.3183     C
C       0.8118   0.5452   0.8183     C
N       0.8119   0.3086   0.3019     N
N       0.8119   0.6914   0.8019     N
C       0.8135   0.3786   0.7304     C
C       0.8135   0.6214   0.2304     C
C       0.8202   0.2457   0.2219     C
C       0.8202   0.7543   0.7219     C
C       0.8235   0.3553      0.8     C
C       0.8235   0.6447      0.3     C
C       0.8302   0.1064   0.8818     C
C       0.8302   0.8936   0.3818     C
C        0.834   0.0548   0.9243     C
C        0.834   0.9452   0.4243     C
C       0.8423   0.2689    0.282     C
C       0.8423   0.7311    0.782     C
N       0.8434   0.3766   0.6571     N
N       0.8434   0.6234   0.1571     N
N       0.8458   0.1863   0.7173     N
N       0.8458   0.8137   0.2173     N
C       0.8518   0.2355   0.7003     C
C       0.8518   0.7645   0.2003     C
N       0.8525   0.1455   0.3881     N
N       0.8525   0.8545   0.8881     N
C       0.8528   0.4973    0.922     C
C       0.8528   0.5027    0.422     C
C       0.8529   0.4849    0.349     C
C       0.8529   0.5151    0.849     C
N       0.8643   0.1004   0.4298     N
N       0.8643   0.8996   0.9298     N
N       0.8919   0.2596   0.6831     N
N       0.8919   0.7404   0.1831     N
C       0.8949   0.1787   0.3921     C
C       0.8949   0.8213   0.8921     C
C       0.8978   0.1672   0.6878     C
C       0.8978   0.8328   0.1878     C
C        0.899    0.467    0.966     C
C        0.899    0.533    0.466     C
Zn     0.90465  0.33216   0.6519    Zn
Zn     0.90465  0.66784   0.1519    Zn
Zn     0.90615  0.24968  0.34401    Zn
Zn     0.90615  0.75032  0.84401    Zn
N       0.9106   0.2926   0.4951     N
N       0.9106   0.7074   0.9951     N
C       0.9132   0.3355     0.54     C
C       0.9132   0.6645     0.04     C
C       0.9141   0.1057   0.4596     C
C       0.9141   0.8943   0.9596     C
N       0.9152   0.3096    0.425     N
N       0.9152   0.6904    0.925     N
C       0.9186   0.1168   0.6755     C
C       0.9186   0.8832   0.1755     C
C       0.9194   0.3791   0.4977     C
C       0.9194   0.6209   0.9977     C
C       0.9207   0.3631   0.4267     C
C       0.9207   0.6369   0.9267     C
C        0.926   0.2132   0.6735     C
C        0.926   0.7868   0.1735     C
C        0.933   0.1542   0.4363     C
C        0.933   0.8458   0.9363     C
N       0.9641   0.3606   0.7134     N
N       0.9641   0.6394   0.2134     N
N        0.966    0.232    0.264     N
N        0.966    0.768    0.764     N
C       0.9678   0.1123   0.6488     C
C       0.9678   0.8877   0.1488     C
C       0.9752   0.2087   0.6468     C
C       0.9752   0.7913   0.1468     C
N        0.978    0.262    0.286     N
N        0.978    0.738    0.786     N
C       0.9801   0.4137   0.7178     C
C       0.9801   0.5863   0.2178     C
C         0.99    0.053    0.631     C
C         0.99    0.947    0.131     C
C        0.996   0.1582   0.6345     C
C        0.996   0.8418   0.1345     C
