data_I
_chemical_name_common  '/home/zhangsd/repos/MofS-CGCNN/ML/data/WS24/clean_cifs/QOSYIH'
_cell_length_a 15.95995
_cell_length_b 15.95995
_cell_length_c 15.95995
_cell_angle_alpha 96.09747
_cell_angle_beta  116.54432
_cell_angle_gamma 116.54432
_space_group_name_H-M_alt      'P 1'


loop_
_space_group_symop_operation_xyz
  'x, y, z' 

loop_
_atom_site_label
_atom_site_fract_x
_atom_site_fract_y
_atom_site_fract_z
_atom_site_type_symbol
H       0.0021   0.3333    0.432     H
N       0.0022    0.322   0.9008     N
H       0.0108    0.418   0.5596     H
C       0.0116   0.8477   0.4737     C
C        0.013   0.1733   0.1927     C
H        0.014   0.9541   0.6725     H
C       0.0194   0.3397   0.8267     C
H       0.0233   0.2096   0.6661     H
H       0.0245   0.1761    0.257     H
C       0.0305   0.1145   0.4724     C
N       0.0358    0.216   0.0732     N
C       0.0359    0.927   0.6363     C
H       0.0435   0.3339   0.3572     H
C       0.0599   0.8646   0.9629     C
C       0.0655   0.2058   0.6379     C
C       0.0679   0.3621   0.4276     C
C       0.0724   0.6574   0.2468     C
N       0.0788   0.9008   0.8986     N
H       0.0809   0.3484   0.8239     H
H       0.0814   0.6423   0.3051     H
C       0.0894   0.2468   0.1744     C
C       0.0926   0.4646   0.6076     C
C       0.0983   0.6953   0.1354     C
H       0.0987   0.1688   0.6667     H
Zn     0.10695  0.30656  0.01585    Zn
C       0.1083   0.8504   0.5331     C
H       0.1089   0.5092   0.6677     H
H       0.1093    0.116   0.9739     H
H       0.1154   0.8974   0.0338     H
H       0.1197   0.3452   0.4707     H
H       0.1255   0.2745   0.6548     H
H       0.1259   0.4255   0.6278     H
C        0.126   0.4737   0.4621     C
H       0.1335   0.8243   0.5002     H
H       0.1364    0.718   0.1026     H
C       0.1365   0.9268   0.6901     C
H       0.1416   0.0928    0.582     H
H       0.1421   0.5067    0.116     H
C       0.1421   0.5276   0.5581     C
N       0.1428   0.6802    0.216     N
C        0.143    0.128   0.5354     C
C       0.1522   0.1603   0.9529     C
H       0.1585   0.0997   0.4908     H
H       0.1628   0.3051   0.2237     H
N       0.1714   0.2517   0.9653     N
C       0.1724   0.8902    0.641     C
H       0.1759   0.5002   0.3667     H
C       0.1827   0.5331   0.4248     C
N       0.1956   0.1328   0.9098     N
H       0.2023   0.2004   0.5745     H
C       0.2074   0.5081   0.1603     C
Zn     0.20929  0.01585   0.9089    Zn
C       0.2093   0.6363   0.6004     C
N       0.2136   0.9653   0.7939     N
H       0.2184   0.6725   0.6585     H
N        0.223   0.4372   0.1328     N
C       0.2367   0.2903   0.9268     C
C       0.2492   0.2178   0.8902     C
C       0.2508    0.641   0.4686     C
C       0.2633   0.6901   0.5536     C
N        0.277   0.9098   0.7142     N
H       0.2816   0.4401   0.9541     H
N       0.2864   0.5803   0.2517     N
C       0.2907   0.3911    0.927     C
Zn     0.29071  0.69961  0.30656    Zn
C       0.2926   0.9529   0.8007     C
H       0.2977   0.3722   0.4981     H
N       0.3044   0.7142   0.4372     N
C       0.3173   0.2421   0.8504     C
H       0.3241   0.1908   0.8243     H
C       0.3276   0.4686   0.2178     C
N       0.3286   0.7939   0.5803     N
H       0.3372   0.0609   0.6423     H
H       0.3415   0.3323   0.4412     H
C       0.3478   0.8007   0.5081     C
C        0.357   0.3924    0.485     C
N       0.3572   0.0732   0.0374     N
C       0.3579    0.416   0.8855     C
H       0.3579   0.9739   0.8646     H
H       0.3584   0.4404   0.4512     H
C       0.3635   0.5536   0.2903     C
H       0.3636   0.9662   0.0816     H
H       0.3665   0.3667   0.1908     H
C        0.374   0.3361   0.8477     C
H       0.3741   0.5019   0.7996     H
H       0.3745   0.5293    0.649     H
H       0.3803    0.351   0.7255     H
H       0.3846   0.9184    0.282     H
H       0.3907   0.8646   0.5067     H
H       0.3911   0.5588   0.9003     H
C       0.3917   0.4248   0.2421     C
Zn     0.39305   0.9089  0.69961    Zn
H       0.4013    0.568   0.5701     H
C       0.4017   0.0371    0.097     C
C       0.4074    0.515    0.872     C
C       0.4106    0.085   0.6574     C
H       0.4186   0.2237   0.0609     H
H       0.4191    0.743   0.7675     H
N       0.4212   0.8198    0.322     N
C       0.4276   0.1744    0.085     C
C       0.4321   0.3597   0.7942     C
C       0.4345   0.5724   0.6403     C
C       0.4401    0.903   0.3047     C
H       0.4565   0.3137   0.7904     H
C       0.4641   0.6004   0.3911     C
N       0.4642   0.0374   0.6802     N
C       0.4695   0.4419    0.584     C
H       0.4755   0.2325   0.6516     H
H       0.4767   0.6428   0.6863     H
C       0.4806   0.8073   0.8203     C
H        0.486   0.6585   0.4401     H
C        0.487   0.1797   0.6603     C
C       0.4884   0.4621   0.3361     C
H       0.4892   0.5488   0.9072     H
N       0.4978   0.8986   0.8198     N
H       0.4979   0.4299   0.8312     H
H       0.5021   0.5701   0.1688     H
N       0.5022   0.1014   0.1802     N
H       0.5108   0.4512   0.0928     H
C       0.5116   0.5379   0.6639     C
C        0.513   0.8203   0.3397     C
H        0.514   0.3415   0.5599     H
C       0.5194   0.1927   0.1797     C
H       0.5233   0.3572   0.3137     H
H       0.5245   0.7675   0.3484     H
C       0.5305   0.5581    0.416     C
N       0.5358   0.9626   0.3198     N
C       0.5359   0.3996   0.6089     C
H       0.5435   0.6863   0.2096     H
C       0.5599    0.097   0.6953     C
C       0.5655   0.4276   0.3597     C
C       0.5679   0.6403   0.2058     C
C       0.5724   0.8256    0.915     C
N       0.5788   0.1802    0.678     N
H       0.5809    0.257   0.2325     H
H       0.5814   0.7763   0.9391     H
C       0.5894    0.915   0.3426     C
C       0.5926    0.485    0.128     C
C       0.5983   0.9629    0.903     C
H       0.5987    0.432   0.4299     H
Zn     0.60695   0.0911  0.30039    Zn
C       0.6083   0.5752   0.7579     C
H       0.6089   0.4412   0.0997     H
H       0.6093   0.1354   0.4933     H
H       0.6154   0.0816    0.718     H
H       0.6197    0.649   0.2745     H
H       0.6255   0.4707    0.351     H
H       0.6259   0.4981   0.2004     H
C        0.626   0.6639   0.1523     C
H       0.6335   0.6333   0.8092     H
H       0.6364   0.0338   0.9184     H
C       0.6365   0.4464   0.7097     C
H       0.6416   0.5596   0.5488     H
H       0.6421   0.0261   0.1354     H
C       0.6421    0.584   0.1145     C
N       0.6428   0.9268   0.9626     N
C        0.643   0.6076    0.515     C
C       0.6522   0.1993   0.4919     C
H       0.6585   0.6677   0.5588     H
H       0.6628   0.9391   0.3577     H
N       0.6714   0.2061   0.4197     N
C       0.6724   0.5314   0.7822     C
H       0.6759   0.8092   0.1757     H
C       0.6827   0.7579   0.1496     C
N       0.6956   0.2858   0.5628     N
H       0.7023   0.6278   0.5019     H
C       0.7074   0.0471   0.1993     C
Zn     0.70929  0.30039  0.69344    Zn
C       0.7093   0.6089    0.073     C
N       0.7136   0.4197   0.7483     N
H       0.7184   0.5599   0.0459     H
N        0.723   0.0902   0.2858     N
C       0.7367   0.3099   0.4464     C
C       0.7492    0.359   0.5314     C
C       0.7508   0.7822   0.1098     C
C       0.7633   0.7097   0.0732     C
N        0.777   0.5628   0.8672     N
H       0.7816   0.3275   0.3415     H
N       0.7864   0.0347   0.2061     N
C       0.7907   0.3637   0.3996     C
Zn     0.79071  0.98415   0.0911    Zn
C       0.7926   0.4919   0.8397     C
H       0.7977   0.7996   0.4255     H
N       0.8044   0.8672   0.0902     N
C       0.8173   0.4669   0.5752     C
H       0.8241   0.4998   0.6333     H
C       0.8276   0.1098    0.359     C
N       0.8286   0.7483   0.0347     N
H       0.8372   0.6949   0.7763     H
H       0.8415   0.9003   0.5092     H
C       0.8478   0.8397   0.0471     C
C        0.857    0.872   0.4646     C
N       0.8572   0.3198    0.784     N
C       0.8579   0.4724   0.4419     C
H       0.8579   0.4933    0.884     H
H       0.8584   0.9072    0.418     H
C       0.8635   0.0732   0.3099     C
H       0.8636    0.282   0.8974     H
H       0.8665   0.1757   0.4998     H
C        0.874   0.5263   0.5379     C
H       0.8741   0.5745   0.3722     H
H       0.8745   0.7255   0.3452     H
H       0.8803   0.6548   0.5293     H
H       0.8846   0.1026   0.9662     H
H       0.8907    0.884   0.0261     H
H       0.8911   0.4908   0.3323     H
C       0.8917   0.1496   0.4669     C
Zn     0.89305  0.69344  0.98415    Zn
H       0.9013   0.8312   0.3333     H
C       0.9017   0.3047   0.8646     C
C       0.9074   0.5354   0.3924     C
C       0.9106   0.7532   0.8256     C
H       0.9186   0.3577   0.6949     H
H       0.9191   0.6516   0.1761     H
N       0.9212   0.0992   0.1014     N
C       0.9276   0.3426   0.7532     C
C       0.9321   0.6379   0.5724     C
C       0.9345   0.7942   0.3621     C
C       0.9401   0.1354   0.0371     C
H       0.9565   0.6661   0.6428     H
C       0.9641    0.073   0.3637     C
N       0.9642    0.784   0.9268     N
C       0.9695   0.8855   0.5276     C
H       0.9755   0.8239    0.743     H
H       0.9767   0.7904   0.3339     H
C       0.9806   0.6603   0.1733     C
H        0.986   0.0459   0.3275     H
C        0.987   0.8267   0.8073     C
C       0.9884   0.1523   0.5263     C
H       0.9892    0.582   0.4404     H
N       0.9978    0.678   0.0992     N
H       0.9979   0.6667    0.568     H
