data_I
_chemical_name_common  '/home/zhangsd/repos/MofS-CGCNN/ML/data/WS24/clean_cifs/RARYIT'
_cell_length_a 12.25000
_cell_length_b 14.49800
_cell_length_c 28.56700
_cell_angle_alpha 90.00000
_cell_angle_beta  90.00000
_cell_angle_gamma 90.00000
_space_group_name_H-M_alt      'P 1'


loop_
_space_group_symop_operation_xyz
  'x, y, z' 

loop_
_atom_site_label
_atom_site_fract_x
_atom_site_fract_y
_atom_site_fract_z
_atom_site_type_symbol
O       0.0052   0.2338  0.59054     O
O       0.0052   0.2662  0.09054     O
C       0.0143   0.2332   0.8751     C
C       0.0143   0.2668   0.3751     C
O       0.0151   0.1171  0.51281     O
O       0.0151   0.3829  0.01281     O
O       0.0198   0.5156   0.2584     O
O       0.0198   0.9844   0.7584     O
H       0.0235    0.193   0.3133     H
H       0.0235    0.307   0.8133     H
N        0.024   0.1524  0.89465     N
N        0.024   0.3476  0.39465     N
C       0.0266      0.2   0.4985     C
C       0.0266      0.3   0.9985     C
C       0.0292    0.248   0.8259     C
C       0.0292    0.252   0.3259     C
C       0.0297   0.2093   0.1197     C
C       0.0297   0.2907   0.6197     C
O       0.0434   0.5041  0.43884     O
O       0.0434   0.9959  0.93884     O
O       0.0487   0.7361  0.79839     O
O       0.0487   0.7639  0.29839     O
C       0.0529   0.1704   0.7961     C
C       0.0529   0.3296   0.2961     C
O        0.053   0.5546   0.1422     O
O        0.053   0.9454   0.6422     O
C       0.0546   0.0807   0.8695     C
C       0.0546   0.4193   0.3695     C
H       0.0574   0.1767   0.7638     H
H       0.0574   0.3233   0.2638     H
C       0.0688   0.0857   0.8177     C
C       0.0688   0.4143   0.3177     C
C       0.0712   0.5098   0.3971     C
C       0.0712   0.9902   0.8971     C
C       0.0804   0.6249   0.8608     C
C       0.0804   0.8751   0.3608     C
O       0.0821   0.1309    0.664     O
O       0.0821   0.3691    0.164     O
C       0.0899   0.0054   0.7845     C
C       0.0899   0.4946   0.2845     C
C        0.104   0.5124   0.9191     C
C        0.104   0.9876   0.4191     C
O       0.1089   0.5796   0.3783     O
O       0.1089   0.9204   0.8783     O
C       0.1152   0.7082   0.8293     C
C       0.1152   0.7918   0.3293     C
C       0.1383   0.2427   0.5043     C
C       0.1383   0.2573   0.0043     C
N       0.1395   0.1684   0.9879     N
N       0.1395   0.3316   0.4879     N
H       0.1422   0.0609   0.1025     H
H       0.1422   0.4391   0.6025     H
H       0.1473   0.0209   0.4398     H
C       0.1473   0.1877   0.1308     C
C       0.1473   0.3123   0.6308     C
H       0.1473   0.4791   0.9398     H
C       0.1476   0.5791   0.8899     C
C       0.1476   0.9209   0.3899     C
C       0.1781   0.1561   0.6722     C
C       0.1781   0.3439   0.1722     C
O       0.1823   0.0779  0.57542     O
O       0.1823   0.4221  0.07542     O
O       0.1858   0.5296  0.28688     O
O       0.1858   0.9704  0.78688     O
C       0.1864   0.1026   0.1185     C
C       0.1864   0.3974   0.6185     C
O       0.2066   0.7433     0.84     O
O       0.2066   0.7567     0.34     O
C       0.2128   0.2497   0.1538     C
C       0.2128   0.2503   0.6538     C
C       0.2269   0.0986   0.5389     C
C       0.2269   0.4014   0.0389     C
C       0.2276   0.1985   0.5225     C
C       0.2276   0.3015   0.0225     C
C       0.2338   0.1199   0.9917     C
C       0.2338   0.3801   0.4917     C
H       0.2369   0.0597   0.9804     H
H       0.2369   0.4403   0.4804     H
O        0.248   0.1086  0.69389     O
O        0.248   0.3914  0.19389     O
C       0.2693   0.5916   0.8929     C
C       0.2693   0.9084   0.3929     C
O       0.2796   0.0442   0.5126     O
O       0.2796   0.4558   0.0126     O
Gd       0.287  0.60917 0.342205    Gd
Gd       0.287  0.89083 0.842205    Gd
H       0.2885   0.1232   0.3394     H
H       0.2885   0.3768   0.8394     H
C       0.2951   0.0789   0.1304     C
C       0.2951   0.4211   0.6304     C
O       0.2952   0.6734  0.42449     O
O       0.2952   0.8266  0.92449     O
O       0.3074    0.022  0.89044     O
O       0.3074    0.478  0.39044     O
C       0.3099   0.1823   0.3307     C
C       0.3099   0.3177   0.8307     C
O       0.3124   0.6211  0.92922     O
O       0.3124   0.8789  0.42922     O
H       0.3137   0.2379   0.3976     H
H       0.3137   0.2621   0.8976     H
H       0.3147   0.1569   0.2607     H
H       0.3147   0.3431   0.7607     H
N       0.3192   0.2281   0.1667     N
N       0.3192   0.2719   0.6667     N
H       0.3241   0.0221   0.1218     H
H       0.3241   0.4779   0.6218     H
C       0.3252   0.2491   0.8661     C
C       0.3252   0.2509   0.3661     C
O       0.3254    0.598    0.556     O
O       0.3254    0.902    0.056     O
C       0.3262   0.2483    0.526     C
C       0.3262   0.2517    0.026     C
C       0.3267   0.2024   0.2831     C
C       0.3267   0.2976   0.7831     C
C       0.3279   0.1601   0.0125     C
C       0.3279   0.3399   0.5125     C
O       0.3301   0.5622  0.85978     O
O       0.3301   0.9378  0.35978     O
O       0.3476   0.6878    0.269     O
O       0.3476   0.8122    0.769     O
H       0.3549   0.0297   0.6161     H
H       0.3549   0.4703   0.1161     H
C        0.358    0.162   0.8511     C
C        0.358    0.338   0.3511     C
C       0.3588   0.1435   0.1558     C
C       0.3588   0.3565   0.6558     C
N       0.3589   0.2155   0.7699     N
N       0.3589   0.2845   0.2699     N
C       0.3741   0.1489   0.8001     C
C       0.3741   0.3511   0.3001     C
C       0.3768    0.088   0.8881     C
C       0.3768    0.412   0.3881     C
H       0.3891     0.22   0.5373     H
H       0.3891     0.28   0.0373     H
H       0.3904   0.1249   0.0171     H
H       0.3904   0.3751   0.5171     H
Ni     0.39972  0.17094  0.70213    Ni
Ni     0.39972  0.32906  0.20213    Ni
C       0.4165   0.0595   0.7808     C
C       0.4165   0.4405   0.2808     C
O       0.4212   0.5112  0.30642     O
O       0.4212   0.9888  0.80642     O
H        0.429   0.1275   0.1652     H
H        0.429   0.3725   0.6652     H
C       0.4292   0.0427   0.6148     C
C       0.4292   0.4573   0.1148     C
O       0.4328   0.0611   0.4441     O
O       0.4328   0.4389   0.9441     O
O       0.4501   0.0603  0.74019     O
O       0.4501   0.4397  0.24019     O
O       0.4507   0.7479  0.01779     O
O       0.4507   0.7521  0.51779     O
O        0.453   0.5663  0.46895     O
O        0.453   0.9337  0.96895     O
O       0.4565   0.0976  0.91391     O
O       0.4565   0.4024  0.41391     O
H        0.459   0.5448   0.0642     H
H        0.459   0.9552   0.5642     H
O       0.4648   0.6598   0.3581     O
O       0.4648   0.8402   0.8581     O
N       0.4718   0.1071   0.6442     N
N       0.4718   0.3929   0.1442     N
Ni     0.49053   0.6205  0.53671    Ni
Ni     0.49053   0.8795  0.03671    Ni
C       0.4915   0.5022   0.0841     C
C       0.4915   0.9978   0.5841     C
H       0.4969   0.7165   0.1061     H
H       0.4969   0.7835   0.6061     H
Gd      0.4997  0.57444 0.905821    Gd
Gd      0.4997  0.92556 0.405821    Gd
O       0.5052   0.7338  0.90946     O
O       0.5052   0.7662  0.40946     O
C       0.5143   0.7332   0.6249     C
C       0.5143   0.7668   0.1249     C
O       0.5151   0.6171  0.98719     O
O       0.5151   0.8829  0.48719     O
O       0.5198   0.0156   0.2416     O
O       0.5198   0.4844   0.7416     O
H       0.5235    0.693   0.1867     H
H       0.5235    0.807   0.6867     H
N        0.524   0.6524  0.60535     N
N        0.524   0.8476  0.10535     N
C       0.5266      0.7   0.0015     C
C       0.5266      0.8   0.5015     C
C       0.5292    0.748   0.6741     C
C       0.5292    0.752   0.1741     C
C       0.5297   0.7093   0.3803     C
C       0.5297   0.7907   0.8803     C
O       0.5434   0.0041  0.06116     O
O       0.5434   0.4959  0.56116     O
O       0.5487   0.2361  0.70161     O
O       0.5487   0.2639  0.20161     O
C       0.5529   0.6704   0.7039     C
C       0.5529   0.8296   0.2039     C
O        0.553   0.0546   0.3578     O
O        0.553   0.4454   0.8578     O
C       0.5546   0.5807   0.6305     C
C       0.5546   0.9193   0.1305     C
H       0.5574   0.6767   0.7362     H
H       0.5574   0.8233   0.2362     H
C       0.5688   0.5857   0.6823     C
C       0.5688   0.9143   0.1823     C
C       0.5712   0.0098   0.1029     C
C       0.5712   0.4902   0.6029     C
C       0.5804   0.1249   0.6392     C
C       0.5804   0.3751   0.1392     C
O       0.5821   0.6309    0.836     O
O       0.5821   0.8691    0.336     O
C       0.5899   0.5054   0.7155     C
C       0.5899   0.9946   0.2155     C
C        0.604   0.0124   0.5809     C
C        0.604   0.4876   0.0809     C
O       0.6089   0.0796   0.1217     O
O       0.6089   0.4204   0.6217     O
C       0.6152   0.2082   0.6707     C
C       0.6152   0.2918   0.1707     C
C       0.6383   0.7427   0.9957     C
C       0.6383   0.7573   0.4957     C
N       0.6395   0.6684   0.5121     N
N       0.6395   0.8316   0.0121     N
H       0.6422   0.5609   0.3975     H
H       0.6422   0.9391   0.8975     H
H       0.6473   0.5209   0.0602     H
C       0.6473   0.6877   0.3692     C
C       0.6473   0.8123   0.8692     C
H       0.6473   0.9791   0.5602     H
C       0.6476   0.0791   0.6101     C
C       0.6476   0.4209   0.1101     C
C       0.6781   0.6561   0.8278     C
C       0.6781   0.8439   0.3278     C
O       0.6823   0.5779  0.92458     O
O       0.6823   0.9221  0.42458     O
O       0.6858   0.0296  0.21312     O
O       0.6858   0.4704  0.71312     O
C       0.6864   0.6026   0.3815     C
C       0.6864   0.8974   0.8815     C
O       0.7066   0.2433     0.66     O
O       0.7066   0.2567     0.16     O
C       0.7128   0.7497   0.3462     C
C       0.7128   0.7503   0.8462     C
C       0.7269   0.5986   0.9611     C
C       0.7269   0.9014   0.4611     C
C       0.7276   0.6985   0.9775     C
C       0.7276   0.8015   0.4775     C
C       0.7338   0.6199   0.5083     C
C       0.7338   0.8801   0.0083     C
H       0.7369   0.5597   0.5196     H
H       0.7369   0.9403   0.0196     H
O        0.748   0.6086  0.80611     O
O        0.748   0.8914  0.30611     O
C       0.7693   0.0916   0.6071     C
C       0.7693   0.4084   0.1071     C
O       0.7796   0.5442   0.9874     O
O       0.7796   0.9558   0.4874     O
Gd       0.787  0.10917 0.157795    Gd
Gd       0.787  0.39083 0.657795    Gd
H       0.7885   0.6232   0.1606     H
H       0.7885   0.8768   0.6606     H
C       0.7951   0.5789   0.3696     C
C       0.7951   0.9211   0.8696     C
O       0.7952   0.1734  0.07551     O
O       0.7952   0.3266  0.57551     O
O       0.8074    0.522  0.60956     O
O       0.8074    0.978  0.10956     O
C       0.8099   0.6823   0.1693     C
C       0.8099   0.8177   0.6693     C
O       0.8124   0.1211  0.57078     O
O       0.8124   0.3789  0.07078     O
H       0.8137   0.7379   0.1024     H
H       0.8137   0.7621   0.6024     H
H       0.8147   0.6569   0.2393     H
H       0.8147   0.8431   0.7393     H
N       0.8192   0.7281   0.3333     N
N       0.8192   0.7719   0.8333     N
H       0.8241   0.5221   0.3782     H
H       0.8241   0.9779   0.8782     H
C       0.8252   0.7491   0.6339     C
C       0.8252   0.7509   0.1339     C
O       0.8254    0.098    0.944     O
O       0.8254    0.402    0.444     O
C       0.8262   0.7483    0.974     C
C       0.8262   0.7517    0.474     C
C       0.8267   0.7024   0.2169     C
C       0.8267   0.7976   0.7169     C
C       0.8279   0.6601   0.4875     C
C       0.8279   0.8399   0.9875     C
O       0.8301   0.0622  0.64022     O
O       0.8301   0.4378  0.14022     O
O       0.8476   0.1878    0.231     O
O       0.8476   0.3122    0.731     O
H       0.8549   0.5297   0.8839     H
H       0.8549   0.9703   0.3839     H
C        0.858    0.662   0.6489     C
C        0.858    0.838   0.1489     C
C       0.8588   0.6435   0.3442     C
C       0.8588   0.8565   0.8442     C
N       0.8589   0.7155   0.7301     N
N       0.8589   0.7845   0.2301     N
C       0.8741   0.6489   0.6999     C
C       0.8741   0.8511   0.1999     C
C       0.8768    0.588   0.6119     C
C       0.8768    0.912   0.1119     C
H       0.8891     0.72   0.9627     H
H       0.8891     0.78   0.4627     H
H       0.8904   0.6249   0.4829     H
H       0.8904   0.8751   0.9829     H
Ni     0.89972  0.67094  0.79787    Ni
Ni     0.89972  0.82906  0.29787    Ni
C       0.9165   0.5595   0.7192     C
C       0.9165   0.9405   0.2192     C
O       0.9212   0.0112  0.19358     O
O       0.9212   0.4888  0.69358     O
H        0.929   0.6275   0.3348     H
H        0.929   0.8725   0.8348     H
C       0.9292   0.5427   0.8852     C
C       0.9292   0.9573   0.3852     C
O       0.9328   0.5611   0.0559     O
O       0.9328   0.9389   0.5559     O
O       0.9501   0.5603  0.75981     O
O       0.9501   0.9397  0.25981     O
O       0.9507   0.2479  0.48221     O
O       0.9507   0.2521  0.98221     O
O        0.953   0.0663  0.03105     O
O        0.953   0.4337  0.53105     O
O       0.9565   0.5976  0.58609     O
O       0.9565   0.9024  0.08609     O
H        0.959   0.0448   0.4358     H
H        0.959   0.4552   0.9358     H
O       0.9648   0.1598   0.1419     O
O       0.9648   0.3402   0.6419     O
N       0.9718   0.6071   0.8558     N
N       0.9718   0.8929   0.3558     N
Ni     0.99053   0.1205  0.96329    Ni
Ni     0.99053   0.3795  0.46329    Ni
C       0.9915   0.0022   0.4159     C
C       0.9915   0.4978   0.9159     C
H       0.9969   0.2165   0.3939     H
H       0.9969   0.2835   0.8939     H
Gd      0.9997  0.07444 0.594179    Gd
Gd      0.9997  0.42556 0.094179    Gd
