data_I
_chemical_name_common  '/home/zhangsd/repos/MofS-CGCNN/ML/data/WS24/clean_cifs/RARYUF'
_cell_length_a 28.84710
_cell_length_b 14.45340
_cell_length_c 12.25200
_cell_angle_alpha 90.00000
_cell_angle_beta  90.00000
_cell_angle_gamma 90.00000
_space_group_name_H-M_alt      'P 1'


loop_
_space_group_symop_operation_xyz
  'x, y, z' 

loop_
_atom_site_label
_atom_site_fract_x
_atom_site_fract_y
_atom_site_fract_z
_atom_site_type_symbol
C       0.0005   0.8034   0.9972     C
C       0.0044   0.2429    0.382     C
C       0.0085   0.6211   0.7891     C
N       0.0115   0.6681   0.8842     N
C       0.0121   0.3381   0.1981     C
O       0.0123   0.1154    0.509     O
O       0.0129   0.0434   0.2424     O
H       0.0165   0.3734   0.1355     H
O       0.0178   0.7549   0.0723     O
H       0.0202   0.5613   0.7843     H
C       0.0218   0.1981    0.293     C
C       0.0255     0.25   0.1985     C
C       0.0361   0.0989   0.2925     C
Co     0.03693  0.61968  0.03843    Co
H       0.0373   0.2233   0.1352     H
H       0.0575   0.9816    0.881     H
O       0.0626   0.4959   0.9816     O
H       0.0668   0.9513   0.0643     H
O       0.0706   0.1199   0.7105     O
O       0.0729   0.0789   0.3382     O
C       0.0801   0.0117   0.9217     C
C       0.0854   0.9953   0.0305     C
O       0.0869   0.5976   0.5682     O
O       0.0897   0.2334   0.5173     O
Dy     0.09343  0.07287  0.52302    Dy
H       0.1024   0.4372   0.3847     H
H       0.1027   0.7584   0.7131     H
C       0.1053   0.4906   0.9555     C
C       0.1076   0.0911   0.7497     C
H        0.108   0.7842   0.0312     H
N       0.1082   0.6508   0.0055     N
O       0.1101    0.523   0.7144     O
C       0.1109   0.0772   0.8731     C
C       0.1131   0.5901   0.6478     C
C       0.1172   0.0414   0.0902     C
C       0.1188   0.3958   0.3412     C
C       0.1194   0.2883   0.4956     C
H       0.1198   0.0274    0.164     H
O       0.1237   0.4181   0.9175     O
O       0.1247   0.9283    0.447     O
H       0.1249   0.4775   0.1984     H
C       0.1269   0.7338   0.0149     C
C       0.1314   0.5792   0.9735     C
C       0.1315   0.3103   0.3796     C
C       0.1323     0.42   0.2277     C
C       0.1338   0.7462   0.6991     C
O       0.1403   0.0601    0.692     O
C       0.1405   0.1257   0.9441     C
O       0.1418   0.3349   0.5615     O
N       0.1448   0.1056   0.0491     N
C       0.1484   0.6628   0.6648     C
O       0.1523   0.9496     0.48     O
C       0.1556   0.2475   0.3111     C
C       0.1561   0.3549   0.1664     C
Dy      0.1572  0.39056  0.73698    Dy
O       0.1584   0.2407   0.8172     O
H       0.1613   0.8766   0.7324     H
O       0.1634   0.1288   0.4426     O
H       0.1651   0.3697   0.0956     H
N       0.1662   0.2726   0.2062     N
C        0.169   0.2065   0.9066     C
C       0.1699   0.8168   0.7131     C
C       0.1706   0.1549   0.3476     C
C       0.1745   0.7476    0.001     C
C       0.1827   0.5869   0.9574     C
H       0.1873   0.8062   0.0098     H
O       0.1903   0.4895   0.6009     O
O       0.1943   0.1087   0.2763     O
C       0.1975   0.6491   0.6481     C
O        0.199    0.235   0.9733     O
Co      0.2031  0.17064  0.12248    Co
C       0.2031   0.6713   0.9731     C
O       0.2119   0.4727   0.8348     O
C       0.2141   0.5062   0.9307     C
C       0.2142   0.7977   0.6991     C
C       0.2148   0.5568   0.6077     C
N       0.2279   0.7142   0.6639     N
H        0.235   0.6786   0.9657     H
H       0.2363   0.8429   0.7138     H
O       0.2402   0.4822   0.0017     O
O       0.2413   0.0586   0.0754     O
O       0.2587   0.5586   0.5754     O
O       0.2598   0.9822   0.5017     O
H       0.2637   0.3429   0.2138     H
H        0.265   0.1786   0.4657     H
N       0.2721   0.2142   0.1639     N
C       0.2852   0.0568   0.1077     C
C       0.2858   0.2977   0.1991     C
C       0.2859   0.0062   0.4307     C
O       0.2881   0.9727   0.3348     O
C       0.2969   0.1713   0.4731     C
Co      0.2969  0.67064  0.62248    Co
O        0.301    0.735   0.4733     O
C       0.3025   0.1491   0.1481     C
O       0.3057   0.6087   0.7763     O
O       0.3097   0.9895   0.1009     O
H       0.3127   0.3062   0.5098     H
C       0.3173   0.0869   0.4574     C
C       0.3255   0.2476    0.501     C
C       0.3294   0.6549   0.8476     C
C       0.3301   0.3168   0.2131     C
C        0.331   0.7065   0.4066     C
N       0.3338   0.7726   0.7062     N
H       0.3349   0.8697   0.5956     H
O       0.3366   0.6288   0.9426     O
H       0.3387   0.3766   0.2324     H
O       0.3416   0.7407   0.3172     O
Dy      0.3428  0.89056  0.23698    Dy
C       0.3439   0.8549   0.6664     C
C       0.3444   0.7475   0.8111     C
O       0.3477   0.4496     0.98     O
C       0.3516   0.1628   0.1648     C
N       0.3552   0.6056   0.5491     N
O       0.3582   0.8349   0.0615     O
C       0.3595   0.6257   0.4441     C
O       0.3597   0.5601    0.192     O
C       0.3662   0.2462   0.1991     C
C       0.3677     0.92   0.7277     C
C       0.3685   0.8103   0.8796     C
C       0.3686   0.0792   0.4735     C
C       0.3731   0.2338   0.5149     C
H       0.3751   0.9775   0.6984     H
O       0.3753   0.4283    0.947     O
O       0.3763   0.9181   0.4175     O
H       0.3802   0.5274    0.664     H
C       0.3806   0.7883   0.9956     C
C       0.3812   0.8958   0.8412     C
C       0.3828   0.5414   0.5902     C
C       0.3869   0.0901   0.1478     C
C       0.3891   0.5772   0.3731     C
O       0.3899    0.023   0.2144     O
N       0.3918   0.1508   0.5055     N
H        0.392   0.2842   0.5312     H
C       0.3924   0.5911   0.2497     C
C       0.3947   0.9906   0.4555     C
H       0.3973   0.2584   0.2131     H
H       0.3976   0.9372   0.8847     H
Dy     0.40657  0.57287  0.02302    Dy
O       0.4103   0.7334   0.0173     O
O       0.4131   0.0976   0.0682     O
C       0.4146   0.4953   0.5305     C
C       0.4199   0.5117   0.4217     C
O       0.4271   0.5789   0.8382     O
O       0.4294   0.6199   0.2105     O
H       0.4332   0.4513   0.5643     H
O       0.4374   0.9959   0.4816     O
H       0.4425   0.4816    0.381     H
H       0.4627   0.7233   0.6352     H
Co     0.46307  0.11968  0.53843    Co
C       0.4639   0.5989   0.7925     C
C       0.4745     0.75   0.6985     C
C       0.4782   0.6981    0.793     C
H       0.4798   0.0613   0.2843     H
O       0.4822   0.2549   0.5723     O
H       0.4835   0.8734   0.6355     H
O       0.4871   0.5434   0.7424     O
O       0.4877   0.6154    0.009     O
C       0.4879   0.8381   0.6981     C
N       0.4885   0.1681   0.3842     N
C       0.4915   0.1211   0.2891     C
C       0.4956   0.7429    0.882     C
C       0.4995   0.3034   0.4972     C
C       0.5005   0.6966   0.9972     C
C       0.5044   0.2571    0.382     C
C       0.5085   0.8789   0.7891     C
N       0.5115   0.8319   0.8842     N
C       0.5121   0.1619   0.1981     C
O       0.5123   0.3846    0.509     O
O       0.5129   0.4566   0.2424     O
H       0.5165   0.1266   0.1355     H
O       0.5178   0.7451   0.0723     O
H       0.5202   0.9387   0.7843     H
C       0.5218   0.3019    0.293     C
C       0.5255     0.25   0.1985     C
C       0.5361   0.4011   0.2925     C
Co     0.53693  0.88032  0.03843    Co
H       0.5373   0.2767   0.1352     H
H       0.5575   0.5184    0.881     H
O       0.5626   0.0041   0.9816     O
H       0.5668   0.5487   0.0643     H
O       0.5706   0.3801   0.7105     O
O       0.5729   0.4211   0.3382     O
C       0.5801   0.4883   0.9217     C
C       0.5854   0.5047   0.0305     C
O       0.5869   0.9024   0.5682     O
O       0.5897   0.2666   0.5173     O
Dy     0.59343  0.42713  0.52302    Dy
H       0.6024   0.0628   0.3847     H
H       0.6027   0.7416   0.7131     H
C       0.6053   0.0094   0.9555     C
C       0.6076   0.4089   0.7497     C
H        0.608   0.7158   0.0312     H
N       0.6082   0.8492   0.0055     N
O       0.6101    0.977   0.7144     O
C       0.6109   0.4228   0.8731     C
C       0.6131   0.9099   0.6478     C
C       0.6172   0.4586   0.0902     C
C       0.6188   0.1042   0.3412     C
C       0.6194   0.2117   0.4956     C
H       0.6198   0.4726    0.164     H
O       0.6237   0.0819   0.9175     O
O       0.6247   0.5717    0.447     O
H       0.6249   0.0225   0.1984     H
C       0.6269   0.7662   0.0149     C
C       0.6314   0.9208   0.9735     C
C       0.6315   0.1897   0.3796     C
C       0.6323     0.08   0.2277     C
C       0.6338   0.7538   0.6991     C
O       0.6403   0.4399    0.692     O
C       0.6405   0.3743   0.9441     C
O       0.6418   0.1651   0.5615     O
N       0.6448   0.3944   0.0491     N
C       0.6484   0.8372   0.6648     C
O       0.6523   0.5504     0.48     O
C       0.6556   0.2525   0.3111     C
C       0.6561   0.1451   0.1664     C
Dy      0.6572  0.10944  0.73698    Dy
O       0.6584   0.2593   0.8172     O
H       0.6613   0.6234   0.7324     H
O       0.6634   0.3712   0.4426     O
H       0.6651   0.1303   0.0956     H
N       0.6662   0.2274   0.2062     N
C        0.669   0.2935   0.9066     C
C       0.6699   0.6832   0.7131     C
C       0.6706   0.3451   0.3476     C
C       0.6745   0.7524    0.001     C
C       0.6827   0.9131   0.9574     C
H       0.6873   0.6938   0.0098     H
O       0.6903   0.0105   0.6009     O
O       0.6943   0.3913   0.2763     O
C       0.6975   0.8509   0.6481     C
O        0.699    0.265   0.9733     O
Co      0.7031  0.32936  0.12248    Co
C       0.7031   0.8287   0.9731     C
O       0.7119   0.0273   0.8348     O
C       0.7141   0.9938   0.9307     C
C       0.7142   0.7023   0.6991     C
C       0.7148   0.9432   0.6077     C
N       0.7279   0.7858   0.6639     N
H        0.735   0.8214   0.9657     H
H       0.7363   0.6571   0.7138     H
O       0.7402   0.0178   0.0017     O
O       0.7413   0.4414   0.0754     O
O       0.7587   0.9414   0.5754     O
O       0.7598   0.5178   0.5017     O
H       0.7637   0.1571   0.2138     H
H        0.765   0.3214   0.4657     H
N       0.7721   0.2858   0.1639     N
C       0.7852   0.4432   0.1077     C
C       0.7858   0.2023   0.1991     C
C       0.7859   0.4938   0.4307     C
O       0.7881   0.5273   0.3348     O
C       0.7969   0.3287   0.4731     C
Co      0.7969  0.82936  0.62248    Co
O        0.801    0.765   0.4733     O
C       0.8025   0.3509   0.1481     C
O       0.8057   0.8913   0.7763     O
O       0.8097   0.5105   0.1009     O
H       0.8127   0.1938   0.5098     H
C       0.8173   0.4131   0.4574     C
C       0.8255   0.2524    0.501     C
C       0.8294   0.8451   0.8476     C
C       0.8301   0.1832   0.2131     C
C        0.831   0.7935   0.4066     C
N       0.8338   0.7274   0.7062     N
H       0.8349   0.6303   0.5956     H
O       0.8366   0.8712   0.9426     O
H       0.8387   0.1234   0.2324     H
O       0.8416   0.7593   0.3172     O
Dy      0.8428  0.60944  0.23698    Dy
C       0.8439   0.6451   0.6664     C
C       0.8444   0.7525   0.8111     C
O       0.8477   0.0504     0.98     O
C       0.8516   0.3372   0.1648     C
N       0.8552   0.8944   0.5491     N
O       0.8582   0.6651   0.0615     O
C       0.8595   0.8743   0.4441     C
O       0.8597   0.9399    0.192     O
C       0.8662   0.2538   0.1991     C
C       0.8677     0.58   0.7277     C
C       0.8685   0.6897   0.8796     C
C       0.8686   0.4208   0.4735     C
C       0.8731   0.2662   0.5149     C
H       0.8751   0.5225   0.6984     H
O       0.8753   0.0717    0.947     O
O       0.8763   0.5819   0.4175     O
H       0.8802   0.9726    0.664     H
C       0.8806   0.7117   0.9956     C
C       0.8812   0.6042   0.8412     C
C       0.8828   0.9586   0.5902     C
C       0.8869   0.4099   0.1478     C
C       0.8891   0.9228   0.3731     C
O       0.8899    0.477   0.2144     O
N       0.8918   0.3492   0.5055     N
H        0.892   0.2158   0.5312     H
C       0.8924   0.9089   0.2497     C
C       0.8947   0.5094   0.4555     C
H       0.8973   0.2416   0.2131     H
H       0.8976   0.5628   0.8847     H
Dy     0.90657  0.92713  0.02302    Dy
O       0.9103   0.7666   0.0173     O
O       0.9131   0.4024   0.0682     O
C       0.9146   0.0047   0.5305     C
C       0.9199   0.9883   0.4217     C
O       0.9271   0.9211   0.8382     O
O       0.9294   0.8801   0.2105     O
H       0.9332   0.0487   0.5643     H
O       0.9374   0.5041   0.4816     O
H       0.9425   0.0184    0.381     H
H       0.9627   0.7767   0.6352     H
Co     0.96307  0.38032  0.53843    Co
C       0.9639   0.9011   0.7925     C
C       0.9745     0.75   0.6985     C
C       0.9782   0.8019    0.793     C
H       0.9798   0.4387   0.2843     H
O       0.9822   0.2451   0.5723     O
H       0.9835   0.6266   0.6355     H
O       0.9871   0.9566   0.7424     O
O       0.9877   0.8846    0.009     O
C       0.9879   0.6619   0.6981     C
N       0.9885   0.3319   0.3842     N
C       0.9915   0.3789   0.2891     C
C       0.9956   0.7571    0.882     C
C       0.9995   0.1966   0.4972     C
