data_I
_chemical_name_common  '/home/zhangsd/repos/MofS-CGCNN/ML/data/WS24/clean_cifs/ROQFUA04'
_cell_length_a 13.22350
_cell_length_b 13.22350
_cell_length_c 13.22350
_cell_angle_alpha 90.00000
_cell_angle_beta  90.00000
_cell_angle_gamma 90.00000
_space_group_name_H-M_alt      'P 1'


loop_
_space_group_symop_operation_xyz
  'x, y, z' 

loop_
_atom_site_label
_atom_site_fract_x
_atom_site_fract_y
_atom_site_fract_z
_atom_site_type_symbol
K          0.0      0.0      0.0     K
Fe         0.0      0.0      0.5    Fe
Fe         0.0      0.5      0.0    Fe
K          0.0      0.5      0.5     K
N      0.01939  0.03838  0.28448     N
N      0.01939  0.46162  0.78448     N
N       0.0208   0.5343  0.29247     N
N       0.0208   0.9657  0.79247     N
N       0.0343  0.20753   0.9792     N
N       0.0343  0.29247   0.4792     N
N      0.03838  0.21552  0.51939     N
N      0.03838  0.28448  0.01939     N
N      0.04456  0.13712  0.56343     N
N      0.04456  0.36288  0.06343     N
N      0.06343  0.04456  0.36288     N
N      0.06343  0.45544  0.86288     N
N      0.13712  0.56343  0.04456     N
N      0.13712  0.93657  0.54456     N
N      0.20753   0.5208   0.5343     N
N      0.20753   0.9792   0.0343     N
N      0.21552  0.51939  0.03838     N
N      0.21552  0.98061  0.53838     N
N      0.28448  0.01939  0.03838     N
N      0.28448  0.48061  0.53838     N
N      0.29247   0.0208   0.5343     N
N      0.29247   0.4792   0.0343     N
N      0.36288  0.06343  0.04456     N
N      0.36288  0.43657  0.54456     N
N      0.43657  0.54456  0.36288     N
N      0.43657  0.95544  0.86288     N
N      0.45544  0.63712  0.56343     N
N      0.45544  0.86288  0.06343     N
N      0.46162  0.71552  0.51939     N
N      0.46162  0.78448  0.01939     N
N       0.4657  0.70753   0.9792     N
N       0.4657  0.79247   0.4792     N
N       0.4792   0.0343  0.29247     N
N       0.4792   0.4657  0.79247     N
N      0.48061  0.53838  0.28448     N
N      0.48061  0.96162  0.78448     N
Fe         0.5      0.0      0.0    Fe
K          0.5      0.0      0.5     K
K          0.5      0.5      0.0     K
Fe         0.5      0.5      0.5    Fe
N      0.51939  0.03838  0.21552     N
N      0.51939  0.46162  0.71552     N
N       0.5208   0.5343  0.20753     N
N       0.5208   0.9657  0.70753     N
N       0.5343  0.20753   0.5208     N
N       0.5343  0.29247   0.0208     N
N      0.53838  0.21552  0.98061     N
N      0.53838  0.28448  0.48061     N
N      0.54456  0.13712  0.93657     N
N      0.54456  0.36288  0.43657     N
N      0.56343  0.04456  0.13712     N
N      0.56343  0.45544  0.63712     N
N      0.63712  0.56343  0.45544     N
N      0.63712  0.93657  0.95544     N
N      0.70753   0.5208   0.9657     N
N      0.70753   0.9792   0.4657     N
N      0.71552  0.51939  0.46162     N
N      0.71552  0.98061  0.96162     N
N      0.78448  0.01939  0.46162     N
N      0.78448  0.48061  0.96162     N
N      0.79247   0.0208   0.9657     N
N      0.79247   0.4792   0.4657     N
N      0.86288  0.06343  0.45544     N
N      0.86288  0.43657  0.95544     N
N      0.93657  0.54456  0.13712     N
N      0.93657  0.95544  0.63712     N
N      0.95544  0.63712  0.93657     N
N      0.95544  0.86288  0.43657     N
N      0.96162  0.71552  0.98061     N
N      0.96162  0.78448  0.48061     N
N       0.9657  0.70753   0.5208     N
N       0.9657  0.79247   0.0208     N
N       0.9792   0.0343  0.20753     N
N       0.9792   0.4657  0.70753     N
N      0.98061  0.53838  0.21552     N
N      0.98061  0.96162  0.71552     N
