data_I
_chemical_name_common  '/home/zhangsd/repos/MofS-CGCNN/ML/data/WS24/clean_cifs/RORJIT'
_cell_length_a 17.34553
_cell_length_b 17.34553
_cell_length_c 17.34553
_cell_angle_alpha 64.72413
_cell_angle_beta  64.72413
_cell_angle_gamma 64.72413
_space_group_name_H-M_alt      'P 1'


loop_
_space_group_symop_operation_xyz
  'x, y, z' 

loop_
_atom_site_label
_atom_site_fract_x
_atom_site_fract_y
_atom_site_fract_z
_atom_site_type_symbol
N      0.00224  0.64294  0.64364     N
C       0.0215   0.5834   0.7197     C
Cu    0.02234333 0.44995333 0.44992333    Cu
C       0.0235   0.7216   0.5808     C
H       0.0485   0.5358   0.7329     H
O      0.05985  0.36955  0.36845     O
H       0.0628   0.7223   0.5359     H
O      0.07105  0.60275  0.45355     O
O      0.07129  0.45429  0.60219     O
C       0.0812   0.7606   0.5744     C
C       0.0864   0.5689    0.756     C
H       0.0921   0.8143   0.5308     H
H       0.1043   0.5184    0.803     H
O      0.10899  0.51729  0.36859     O
O       0.1091   0.3687   0.5174     O
C      0.11846  0.38656  0.57436     C
C      0.11877  0.57417  0.38677     C
C       0.1192   0.7111   0.6393     C
C       0.1194   0.6398   0.7121     C
H       0.1657   0.3849   0.7032     H
H        0.167   0.7022   0.3852     H
H       0.1702   0.5842   0.7059     H
H       0.1736   0.7121   0.5856     H
H       0.1857   0.4692   0.9079     H
H        0.191   0.7547   0.6721     H
C      0.19223  0.61263  0.32303     C
C       0.1924   0.3236   0.6118     C
H        0.193   0.6714   0.7513     H
H        0.197   0.8957   0.4816     H
C       0.1984   0.7367    0.635     C
C          0.2   0.6369   0.7305     C
C      0.20583  0.33663  0.67963     C
C      0.20639  0.67939  0.33649     C
O       0.2165   0.4384   0.7651     O
N      0.22171  0.70711  0.70521     N
O       0.2346   0.7526   0.4424     O
O       0.2349   0.7835   0.5616     O
H       0.2392   0.2398   0.5366     H
C       0.2394   0.4256   0.9188     C
H       0.2398   0.5366   0.2392     H
C        0.244   0.9136   0.4311     C
H       0.2453   0.3279    0.809     H
H        0.246   0.0153   0.4549     H
O       0.2474   0.5576   0.7654     O
H        0.248   0.4637   0.0065     H
H       0.2487    0.807   0.3286     H
C       0.2497   0.2505   0.5802     C
C       0.2505   0.5802   0.2497     C
C       0.2633    0.365   0.8016     C
H       0.2671   0.9515   0.4642     H
C       0.2695      0.8   0.3631     C
H       0.2777   0.4641   0.9372     H
C      0.27815  0.27845  0.71175     C
C       0.2784   0.4192   0.9765     C
C      0.27845  0.71175  0.27815     C
C       0.2803   0.9785   0.4166     C
H       0.2879   0.4144   0.8264     H
C       0.2879   0.8806   0.3602     C
C      0.28825  0.72185  0.72155     C
C       0.2889   0.3607   0.8808     C
N      0.29289  0.29479  0.77829     N
H       0.2941   0.8298   0.4158     H
N      0.29479  0.77829  0.29289     N
H       0.2968   0.8343   0.6151     H
H       0.2978   0.6148    0.833     H
C      0.32037  0.79417  0.66337     C
C      0.32061  0.66351  0.79361     C
C      0.32303  0.19223  0.61263     C
C       0.3236   0.6118   0.1924     C
H       0.3279    0.809   0.2453     H
H       0.3286   0.2487    0.807     H
C      0.33649  0.20639  0.67939     C
C      0.33663  0.67963  0.20583     C
N      0.35636  0.99776  0.35706     N
N      0.35706  0.35636  0.99776     N
C       0.3602   0.2879   0.8806     C
C       0.3607   0.8808   0.2889     C
C       0.3631   0.2695      0.8     C
C        0.365   0.8016   0.2633     C
O      0.36845  0.05985  0.36955     O
O      0.36859  0.10899  0.51729     O
O       0.3687   0.5174   0.1091     O
O      0.36955  0.36845  0.05985     O
H       0.3849   0.7032   0.1657     H
H       0.3852    0.167   0.7022     H
C      0.38656  0.57436  0.11846     C
C      0.38677  0.11877  0.57417     C
C      0.38737  0.67697  0.80777     C
C       0.3882   0.8076   0.6764     C
O      0.39725  0.54645  0.92895     O
O      0.39781  0.92871  0.54571     O
C       0.4048   0.9365   0.3134     C
C       0.4078   0.3078   0.9453     C
H       0.4144   0.8264   0.2879     H
H       0.4158   0.2941   0.8298     H
C       0.4198   0.7503   0.7495     C
C       0.4256   0.9188   0.2394     C
C      0.42564  0.88154  0.61344     C
C      0.42583  0.61323  0.88123     C
C       0.4311    0.244   0.9136     C
O       0.4384   0.7651   0.2165     O
O       0.4424   0.2346   0.7526     O
Cu    0.44992333 0.02234333 0.44995333    Cu
Cu    0.44995333 0.44992333 0.02234333    Cu
O      0.45355  0.07105  0.60275     O
O      0.45429  0.60219  0.07129     O
H       0.4634   0.7608   0.7602     H
H       0.4641   0.9372   0.2777     H
H       0.4642   0.2671   0.9515     H
H       0.4692   0.9079   0.1857     H
H       0.4816    0.197   0.8957     H
O       0.4826   0.8909   0.6313     O
O      0.48271  0.63141  0.89101     O
O      0.51729  0.36859  0.10899     O
O       0.5174   0.1091   0.3687     O
H       0.5184    0.803   0.1043     H
H       0.5308   0.0921   0.8143     H
H       0.5358   0.7329   0.0485     H
H       0.5359   0.0628   0.7223     H
H       0.5363   0.9935    0.752     H
H       0.5366   0.2392   0.2398     H
H       0.5451    0.754   0.9847     H
O      0.54571  0.39781  0.92871     O
O      0.54645  0.92895  0.39725     O
Cu    0.55004667 0.55007667 0.97765667    Cu
Cu    0.55007667 0.97765667 0.55004667    Cu
O       0.5576   0.7654   0.2474     O
O       0.5616   0.2349   0.7835     O
C       0.5689    0.756   0.0864     C
C      0.57417  0.38677  0.11877     C
C      0.57436  0.11846  0.38656     C
C       0.5744   0.0812   0.7606     C
C       0.5802   0.2497   0.2505     C
C       0.5808   0.0235   0.7216     C
C       0.5834   0.7197   0.0215     C
H       0.5842   0.7059   0.1702     H
H       0.5856   0.1736   0.7121     H
O      0.60219  0.07129  0.45429     O
O      0.60275  0.45355  0.07105     O
C       0.6118   0.1924   0.3236     C
C      0.61263  0.32303  0.19223     C
C      0.61323  0.88123  0.42583     C
C      0.61344  0.42564  0.88154     C
H       0.6148    0.833   0.2978     H
H       0.6151   0.2968   0.8343     H
C        0.624   0.1278   0.6847     C
C       0.6242   0.6822   0.1221     C
O      0.63045  0.63155  0.94015     O
O       0.6313   0.4826   0.8909     O
O      0.63141  0.89101  0.48271     O
O      0.63155  0.94015  0.63045     O
C        0.635   0.1984   0.7367     C
C       0.6369   0.7305      0.2     C
N      0.64294  0.64364  0.00224     N
N      0.64364  0.00224  0.64294     N
C      0.66337  0.32037  0.79417     C
C      0.66351  0.79361  0.32061     C
H       0.6714   0.7513    0.193     H
H       0.6721    0.191   0.7547     H
C       0.6764   0.3882   0.8076     C
C      0.67697  0.80777  0.38737     C
C      0.67939  0.33649  0.20639     C
C      0.67963  0.20583  0.33663     C
C       0.6822   0.1221   0.6242     C
C       0.6847    0.624   0.1278     C
C       0.6866   0.5952   0.0635     C
C       0.6922   0.0547   0.5922     C
H       0.7022   0.3852    0.167     H
H       0.7032   0.1657   0.3849     H
N      0.70521  0.22171  0.70711     N
H       0.7059   0.1702   0.5842     H
N      0.70711  0.70521  0.22171     N
C      0.71175  0.27815  0.27845     C
H       0.7121   0.5856   0.1736     H
C      0.72155  0.28825  0.72185     C
C      0.72185  0.72155  0.28825     C
H       0.7223   0.5359   0.0628     H
C       0.7305      0.2   0.6369     C
H       0.7329   0.0485   0.5358     H
C       0.7367    0.635   0.1984     C
C       0.7495   0.4198   0.7503     C
C       0.7503   0.7495   0.4198     C
H       0.7513    0.193   0.6714     H
O       0.7526   0.4424   0.2346     O
H       0.7547   0.6721    0.191     H
C        0.756   0.0864   0.5689     C
H       0.7602   0.4634   0.7608     H
C       0.7606   0.5744   0.0812     C
H       0.7608   0.7602   0.4634     H
O       0.7651   0.2165   0.4384     O
O       0.7654   0.2474   0.5576     O
N      0.77829  0.29289  0.29479     N
O       0.7835   0.5616   0.2349     O
C      0.79361  0.32061  0.66351     C
C      0.79417  0.66337  0.32037     C
C          0.8   0.3631   0.2695     C
C       0.8016   0.2633    0.365     C
H        0.803   0.1043   0.5184     H
H        0.807   0.3286   0.2487     H
C       0.8076   0.6764   0.3882     C
C      0.80777  0.38737  0.67697     C
H        0.809   0.2453   0.3279     H
H       0.8143   0.5308   0.0921     H
H       0.8264   0.2879   0.4144     H
H       0.8298   0.4158   0.2941     H
H        0.833   0.2978   0.6148     H
H       0.8343   0.6151   0.2968     H
C       0.8722   0.3153    0.376     C
C       0.8779   0.3758   0.3178     C
C      0.88123  0.42583  0.61323     C
C      0.88154  0.61344  0.42564     C
O       0.8909   0.6313   0.4826     O
O      0.89101  0.48271  0.63141     O
H       0.8957   0.4816    0.197     H
H       0.9079   0.1857   0.4692     H
C       0.9136   0.4311    0.244     C
C       0.9188   0.2394   0.4256     C
O      0.92871  0.54571  0.39781     O
O      0.92895  0.39725  0.54645     O
C       0.9365   0.3134   0.4048     C
H       0.9372   0.2777   0.4641     H
O      0.94015  0.63045  0.63155     O
C       0.9453   0.4078   0.3078     C
H       0.9515   0.4642   0.2671     H
Cu    0.97765667 0.55004667 0.55007667    Cu
H       0.9847   0.5451    0.754     H
H       0.9935    0.752   0.5363     H
N      0.99776  0.35706  0.35636     N
