data_I
_chemical_name_common  '/home/zhangsd/repos/MofS-CGCNN/ML/data/WS24/clean_cifs/ROSCAD'
_cell_length_a  7.77290
_cell_length_b 17.86500
_cell_length_c 19.04900
_cell_angle_alpha 90.00000
_cell_angle_beta  90.00000
_cell_angle_gamma 93.13000
_space_group_name_H-M_alt      'P 1'


loop_
_space_group_symop_operation_xyz
  'x, y, z' 

loop_
_atom_site_label
_atom_site_fract_x
_atom_site_fract_y
_atom_site_fract_z
_atom_site_type_symbol
N       0.0137   0.4996  0.03713     N
N       0.0137   0.9996  0.46287     N
O       0.0229   0.1835  0.80542     O
O       0.0229   0.6835  0.69458     O
C       0.0319   0.0164   0.3106     C
C       0.0319   0.5164   0.1894     C
H       0.0323   0.3916   0.6688     H
H       0.0323   0.8916   0.8312     H
C       0.0358   0.0331   0.2403     C
C       0.0358   0.5331   0.2597     C
C       0.0362   0.4023   0.7166     C
C       0.0362   0.9023   0.7834     C
C       0.0467   0.4354   0.8566     C
C       0.0467   0.9354   0.6434     C
O       0.0578   0.3192  0.19832     O
O       0.0578   0.8192  0.30168     O
C       0.0585   0.4473   0.9327     C
C       0.0585   0.9473   0.5673     C
H        0.081   0.4736   0.1727     H
H        0.081   0.9736   0.3273     H
H       0.0865   0.0012   0.2088     H
H       0.0865   0.5012   0.2912     H
N       0.0916   0.3343   0.2611     N
N       0.0916   0.8343   0.2389     N
N       0.1111  0.35485   0.7597     N
N       0.1111  0.85485   0.7403     N
H       0.1144   0.1723   0.5709     H
H       0.1144   0.6723   0.9291     H
C       0.1162   0.3723   0.8286     C
C       0.1162   0.8723   0.6714     C
H       0.1209   0.4148   0.9596     H
H       0.1209   0.9148   0.5404     H
H       0.1661   0.1845   0.4535     H
H       0.1661   0.6845   0.0465     H
H       0.1693     0.34    0.859     H
H       0.1693     0.84    0.641     H
C       0.1741   0.2154   0.5546     C
C       0.1741   0.7154   0.9454     C
C       0.2012   0.2231   0.4839     C
C       0.2012   0.7231   0.0161     C
Cd     0.22395 0.242806 0.721871    Cd
Cd     0.22395 0.742806 0.778129    Cd
O       0.2289   0.3654   0.2793     O
O       0.2289   0.8654   0.2207     O
N       0.2303  0.26771  0.60159     N
N       0.2303  0.76771  0.89841     N
C       0.2813   0.2887   0.4578     C
C       0.2813   0.7887   0.0422     C
H       0.2997   0.2949   0.4099     H
H       0.2997   0.7949   0.0901     H
C       0.3091   0.3314   0.5768     C
C       0.3091   0.8314   0.9232     C
O       0.3245  0.18379    0.316     O
O       0.3245  0.68379    0.184     O
C       0.3331   0.3445   0.5047     C
C       0.3331   0.8445   0.9953     C
H        0.335    0.109   0.8186     H
H        0.335    0.609   0.6814     H
N       0.3466  0.12494  0.71686     N
N       0.3466  0.62494  0.78314     N
H       0.3489    0.368   0.6085     H
H       0.3489    0.868   0.8915     H
C       0.3699   0.0875   0.7768     C
C       0.3699   0.5875   0.7232     C
H        0.381   0.1188   0.6156     H
H        0.381   0.6188   0.8844     H
C       0.3966   0.0932   0.6574     C
C       0.3966   0.5932   0.8426     C
C       0.4114   0.4157   0.4792     C
C       0.4114   0.9157   0.0208     C
H       0.4227   0.4222   0.4309     H
H       0.4227   0.9222   0.0691     H
O       0.4277  0.25427  0.82261     O
O       0.4277  0.75427  0.67739     O
H       0.4299   0.0537   0.4138     H
H       0.4299   0.5537   0.0862     H
C       0.4423   0.0196   0.7799     C
C       0.4423   0.5196   0.7201     C
H       0.4547   0.0585   0.2818     H
H       0.4547   0.5585   0.2182     H
H       0.4562   0.4955   0.6774     H
H       0.4562   0.9955   0.8226     H
N       0.4616   0.2058    0.289     N
N       0.4616   0.7058    0.211     N
N       0.4645   0.4686  0.51862     N
N       0.4645   0.9686  0.98138     N
C       0.4709   0.0238   0.6543     C
C       0.4709   0.5238   0.8457     C
N       0.4754    0.021   0.5295     N
N       0.4754    0.521   0.9705     N
C       0.4866   0.0092   0.4131     C
C       0.4866   0.5092   0.0869     C
C       0.4945   0.4875   0.7825     C
C       0.4945   0.9875   0.7175     C
O        0.497   0.1893  0.22645     O
O        0.497   0.6893  0.27355     O
O        0.503   0.3107  0.72645     O
O        0.503   0.8107  0.77355     O
C       0.5055   0.0125   0.2825     C
C       0.5055   0.5125   0.2175     C
C       0.5134   0.4908   0.9131     C
C       0.5134   0.9908   0.5869     C
N       0.5246    0.479   0.0295     N
N       0.5246    0.979   0.4705     N
C       0.5291   0.4762   0.1543     C
C       0.5291   0.9762   0.3457     C
N       0.5355   0.0314  0.01862     N
N       0.5355   0.5314  0.48138     N
N       0.5384   0.2942    0.789     N
N       0.5384   0.7942    0.711     N
H       0.5438   0.0045   0.1774     H
H       0.5438   0.5045   0.3226     H
H       0.5453   0.4415   0.7818     H
H       0.5453   0.9415   0.7182     H
C       0.5577   0.4804   0.2799     C
C       0.5577   0.9804   0.2201     C
H       0.5701   0.4463   0.9138     H
H       0.5701   0.9463   0.5862     H
O       0.5723  0.24573  0.32261     O
O       0.5723  0.74573  0.17739     O
H       0.5773   0.0778   0.9309     H
H       0.5773   0.5778   0.5691     H
C       0.5886   0.0843   0.9792     C
C       0.5886   0.5843   0.5208     C
C       0.6034   0.4068   0.1574     C
C       0.6034   0.9068   0.3426     C
H        0.619   0.3812   0.1156     H
H        0.619   0.8812   0.3844     H
C       0.6301   0.4125   0.2768     C
C       0.6301   0.9125   0.2232     C
H       0.6511    0.132   0.1085     H
H       0.6511    0.632   0.3915     H
N       0.6534  0.37506  0.21686     N
N       0.6534  0.87506  0.28314     N
H        0.665    0.391   0.3186     H
H        0.665    0.891   0.1814     H
C       0.6669   0.1555   0.0047     C
C       0.6669   0.6555   0.4953     C
O       0.6755  0.31621    0.816     O
O       0.6755  0.81621    0.684     O
C       0.6909   0.1686   0.0768     C
C       0.6909   0.6686   0.4232     C
H       0.7003   0.2051   0.9099     H
H       0.7003   0.7051   0.5901     H
C       0.7187   0.2113   0.9578     C
C       0.7187   0.7113   0.5422     C
N       0.7697  0.23229  0.10159     N
N       0.7697  0.73229  0.39841     N
O       0.7711   0.1346   0.7793     O
O       0.7711   0.6346   0.7207     O
Cd     0.77605 0.257194 0.221871    Cd
Cd     0.77605 0.757194 0.278129    Cd
C       0.7988   0.2769   0.9839     C
C       0.7988   0.7769   0.5161     C
C       0.8259   0.2846   0.0546     C
C       0.8259   0.7846   0.4454     C
H       0.8307     0.16    0.359     H
H       0.8307     0.66    0.141     H
H       0.8339   0.3155   0.9535     H
H       0.8339   0.8155   0.5465     H
H       0.8791   0.0852   0.4596     H
H       0.8791   0.5852   0.0404     H
C       0.8838   0.1277   0.3286     C
C       0.8838   0.6277   0.1714     C
H       0.8856   0.3277   0.0709     H
H       0.8856   0.8277   0.4291     H
N       0.8889  0.14515   0.2597     N
N       0.8889  0.64515   0.2403     N
N       0.9084   0.1657   0.7611     N
N       0.9084   0.6657   0.7389     N
H       0.9135   0.4988   0.7088     H
H       0.9135   0.9988   0.7912     H
H        0.919   0.0264   0.6727     H
H        0.919   0.5264   0.8273     H
C       0.9415   0.0527   0.4327     C
C       0.9415   0.5527   0.0673     C
O       0.9422   0.1808  0.69832     O
O       0.9422   0.6808  0.80168     O
C       0.9533   0.0646   0.3566     C
C       0.9533   0.5646   0.1434     C
C       0.9638   0.0977   0.2166     C
C       0.9638   0.5977   0.2834     C
C       0.9642   0.4669   0.7403     C
C       0.9642   0.9669   0.7597     C
H       0.9677   0.1084   0.1688     H
H       0.9677   0.6084   0.3312     H
C       0.9681   0.4836   0.8106     C
C       0.9681   0.9836   0.6894     C
O       0.9771   0.3165  0.30542     O
O       0.9771   0.8165  0.19458     O
N       0.9863   0.0004  0.53713     N
N       0.9863   0.5004  0.96287     N
