data_I
_chemical_name_common  '/home/zhangsd/repos/MofS-CGCNN/ML/data/WS24/clean_cifs/ROSCIL'
_cell_length_a  8.58020
_cell_length_b 10.44300
_cell_length_c 17.50600
_cell_angle_alpha 90.00000
_cell_angle_beta  90.00000
_cell_angle_gamma 96.59000
_space_group_name_H-M_alt      'P 1'


loop_
_space_group_symop_operation_xyz
  'x, y, z' 

loop_
_atom_site_label
_atom_site_fract_x
_atom_site_fract_y
_atom_site_fract_z
_atom_site_type_symbol
Cd         0.0      0.0      0.5    Cd
C       0.0015   0.1253   0.8967     C
H       0.0121   0.8325   0.9907     H
H        0.027   0.8905   0.6718     H
N       0.0417   0.8261  0.42328     N
N       0.0439   0.9698  0.14703     N
C       0.0586   0.3677  0.64269     C
C       0.0692   0.1558   0.3398     C
C       0.0777   0.2588   0.5996     C
O       0.0821   0.3887   0.1027     O
C       0.0834   0.8402   0.0332     C
H       0.0917   0.2487   0.2388     H
C       0.0932   0.6129    0.337     C
H       0.1041   0.5204   0.7618     H
H       0.1116   0.5419   0.3077     H
H       0.1246   0.7596    0.041     H
N       0.1341   0.1377  0.40772     N
C       0.1388   0.2404   0.2861     C
C       0.1512   0.2033   0.8741     C
N       0.1666   0.4902  0.10595     N
H        0.168   0.9063   0.0227     H
H       0.1684   0.6341   0.7078     H
O       0.1711    0.545   0.1632     O
H       0.1729   0.1284   0.7684     H
N        0.178   0.0487  0.12444     N
H       0.1787   0.3089   0.9699     H
H       0.1789   0.2442    0.586     H
H       0.1805   0.8118    0.848     H
C       0.1873   0.8048   0.4034     C
C       0.1881   0.5521   0.7282     C
C       0.1982   0.4588   0.6642     C
H       0.2148   0.9383   0.2559     H
C        0.217   0.7003   0.3608     C
C       0.2206   0.1872   0.8035     C
C       0.2267   0.2943   0.9236     C
H       0.2287   0.6368   0.9191     H
O        0.244   0.9743  0.55345     O
O        0.256   0.5257  0.05345     O
H       0.2713   0.8632   0.4191     H
C       0.2733   0.2057   0.4236     C
C       0.2794   0.3128   0.3035     C
C        0.283   0.7997   0.8608     C
H       0.2852   0.5617   0.7559     H
C       0.3018   0.0412   0.1642     C
C       0.3119   0.9479   0.2282     C
C       0.3127   0.6952   0.9034     C
H       0.3195   0.6882    0.348     H
H       0.3211   0.2558    0.086     H
H       0.3213   0.1911   0.4699     H
N        0.322   0.4513  0.62444     N
H       0.3271   0.3716   0.2684     H
O       0.3289    0.955   0.6632     O
H       0.3316   0.8659   0.2078     H
H        0.332   0.5937   0.5227     H
N       0.3334   0.0098  0.60595     N
C       0.3488   0.2967   0.3741     C
C       0.3612   0.2596   0.7861     C
N       0.3659   0.3623  0.90772     N
H       0.3754   0.7404    0.541     H
H       0.3884   0.9581   0.8077     H
H       0.3959   0.9796   0.2618     H
C       0.4068   0.8871    0.837     C
H       0.4083   0.2513   0.7388     H
C       0.4166   0.6598   0.5332     C
O       0.4179   0.1113   0.6027     O
C       0.4223   0.2412   0.0996     C
C       0.4308   0.3442   0.8398     C
C       0.4414   0.1323  0.14269     C
N       0.4561   0.5302  0.64703     N
N       0.4583   0.6739  0.92328     N
H        0.473   0.6095   0.1718     H
H       0.4879   0.6675   0.4907     H
C       0.4985   0.3747   0.3967     C
Cd         0.5      0.5      0.0    Cd
C       0.5015   0.6253   0.6033     C
H       0.5121   0.3325   0.5093     H
H        0.527   0.3905   0.8282     H
N       0.5417   0.3261  0.07672     N
N       0.5439   0.4698  0.35297     N
C       0.5586   0.8677  0.85731     C
C       0.5692   0.6558   0.1602     C
C       0.5777   0.7588   0.9004     C
O       0.5821   0.8887   0.3973     O
C       0.5834   0.3402   0.4668     C
H       0.5917   0.7487   0.2612     H
C       0.5932   0.1129    0.163     C
H       0.6041   0.0204   0.7382     H
H       0.6116   0.0419   0.1923     H
H       0.6246   0.2596    0.459     H
N       0.6341   0.6377  0.09228     N
C       0.6388   0.7404   0.2139     C
C       0.6512   0.7033   0.6259     C
N       0.6666   0.9902  0.39405     N
H        0.668   0.4063   0.4773     H
H       0.6684   0.1341   0.7922     H
O       0.6711    0.045   0.3368     O
H       0.6729   0.6284   0.7316     H
N        0.678   0.5487  0.37556     N
H       0.6787   0.8089   0.5301     H
H       0.6789   0.7442    0.914     H
H       0.6805   0.3118    0.652     H
C       0.6873   0.3048   0.0966     C
C       0.6881   0.0521   0.7718     C
C       0.6982   0.9588   0.8358     C
H       0.7148   0.4383   0.2441     H
C        0.717   0.2003   0.1392     C
C       0.7206   0.6872   0.6965     C
C       0.7267   0.7943   0.5764     C
H       0.7287   0.1368   0.5809     H
O        0.744   0.4743  0.94655     O
O        0.756   0.0257  0.44655     O
H       0.7713   0.3632   0.0809     H
C       0.7733   0.7057   0.0764     C
C       0.7794   0.8128   0.1965     C
C        0.783   0.2997   0.6392     C
H       0.7852   0.0617   0.7441     H
C       0.8018   0.5412   0.3358     C
C       0.8119   0.4479   0.2718     C
C       0.8127   0.1952   0.5966     C
H       0.8195   0.1882    0.152     H
H       0.8211   0.7558    0.414     H
H       0.8213   0.6911   0.0301     H
N        0.822   0.9513  0.87556     N
H       0.8271   0.8716   0.2316     H
O       0.8289    0.455   0.8368     O
H       0.8316   0.3659   0.2922     H
H        0.832   0.0937   0.9773     H
N       0.8334   0.5098  0.89405     N
C       0.8488   0.7967   0.1259     C
C       0.8612   0.7596   0.7139     C
N       0.8659   0.8623  0.59228     N
H       0.8754   0.2404    0.959     H
H       0.8884   0.4581   0.6923     H
H       0.8959   0.4796   0.2382     H
C       0.9068   0.3871    0.663     C
H       0.9083   0.7513   0.7612     H
C       0.9166   0.1598   0.9668     C
O       0.9179   0.6113   0.8973     O
C       0.9223   0.7412   0.4004     C
C       0.9308   0.8442   0.6602     C
C       0.9414   0.6323  0.35731     C
N       0.9561   0.0302  0.85297     N
N       0.9583   0.1739  0.57672     N
H        0.973   0.1095   0.3282     H
H       0.9879   0.1675   0.0093     H
C       0.9985   0.8747   0.1033     C
