data_I
_chemical_name_common  '/home/zhangsd/repos/MofS-CGCNN/ML/data/WS24/clean_cifs/RUJGIN'
_cell_length_a 10.45278
_cell_length_b 10.45278
_cell_length_c 11.53100
_cell_angle_alpha 88.94138
_cell_angle_beta  88.94138
_cell_angle_gamma 61.21401
_space_group_name_H-M_alt      'P 1'


loop_
_space_group_symop_operation_xyz
  'x, y, z' 

loop_
_atom_site_label
_atom_site_fract_x
_atom_site_fract_y
_atom_site_fract_z
_atom_site_type_symbol
H       0.0261   0.3613   0.6995     H
H        0.067    0.487    0.861     H
C       0.0806   0.2656   0.3397     C
C       0.0841   0.6549   0.6547     C
C       0.0934   0.3084   0.7566     C
H        0.097    0.155    0.198     H
H        0.117    0.353    0.485     H
C       0.1205   0.3797   0.8425     C
O       0.1427   0.5663   0.5737     O
H       0.1438   0.6906   0.9562     H
O       0.1475   0.6859   0.7322     O
H        0.155    0.097    0.698     H
C       0.1566     0.29   0.4243     C
C       0.1583   0.1657   0.2541     C
C       0.1657   0.1583   0.7541     C
H       0.2008   0.7954   0.5229     H
H       0.2046   0.7992   0.9771     H
H        0.217    0.527    0.186     H
N       0.2189   0.3037   0.9243     N
H       0.2204   0.6848   0.0733     H
C       0.2204   0.7018   0.9912     C
O       0.2456    0.375   0.0082     O
O       0.2575   0.5181   0.3472     O
C       0.2656   0.0806   0.8397     C
C       0.2839   0.4893   0.2444     C
C         0.29   0.1566   0.9243     C
C       0.2982   0.7796   0.5088     C
N       0.3037   0.2189   0.4243     N
C       0.3084   0.0934   0.2566     C
H       0.3094   0.8562   0.5438     H
O       0.3141   0.8525   0.7678     O
H       0.3152   0.7796   0.4267     H
C       0.3451   0.9159   0.8453     C
H        0.353    0.117    0.985     H
H       0.3613   0.0261   0.1995     H
O       0.3637   0.5949   0.9402     O
Mn     0.37171  0.45513  0.50867    Mn
Mn     0.37355  0.62645     0.75    Mn
O        0.375   0.2456   0.5082     O
C       0.3797   0.1205   0.3425     C
O       0.4044   0.4378   0.1928     O
O       0.4051   0.6363   0.5598     O
O       0.4337   0.8573   0.9263     O
O       0.4378   0.4044   0.6928     O
Mn     0.45513  0.37171  0.00867    Mn
H        0.473    0.783    0.314     H
O       0.4819   0.7425   0.1528     O
H        0.487    0.067    0.361     H
C       0.4893   0.2839   0.7444     C
C       0.5107   0.7161   0.2556     C
H        0.513    0.933    0.639     H
O       0.5181   0.2575   0.8472     O
H        0.527    0.217    0.686     H
Mn     0.54487  0.62829  0.99133    Mn
O       0.5622   0.5956   0.3072     O
O       0.5663   0.1427   0.0737     O
O       0.5949   0.3637   0.4402     O
O       0.5956   0.5622   0.8072     O
C       0.6203   0.8795   0.6575     C
O        0.625   0.7544   0.4918     O
Mn     0.62645  0.37355     0.25    Mn
Mn     0.62829  0.54487  0.49133    Mn
O       0.6363   0.4051   0.0598     O
H       0.6387   0.9739   0.8005     H
H        0.647    0.883    0.015     H
C       0.6549   0.0841   0.1547     C
H       0.6848   0.2204   0.5733     H
O       0.6859   0.1475   0.2322     O
H       0.6906   0.1438   0.4562     H
C       0.6916   0.9066   0.7434     C
N       0.6963   0.7811   0.5757     N
C       0.7018   0.2204   0.4912     C
C         0.71   0.8434   0.0757     C
C       0.7161   0.5107   0.7556     C
C       0.7344   0.9194   0.1603     C
O       0.7425   0.4819   0.6528     O
O       0.7544    0.625   0.9918     O
C       0.7796   0.2982   0.0088     C
H       0.7796   0.3152   0.9267     H
N       0.7811   0.6963   0.0757     N
H        0.783    0.473    0.814     H
H       0.7954   0.2008   0.0229     H
H       0.7992   0.2046   0.4771     H
C       0.8343   0.8417   0.2459     C
C       0.8417   0.8343   0.7459     C
C       0.8434     0.71   0.5757     C
H        0.845    0.903    0.302     H
O       0.8525   0.3141   0.2678     O
H       0.8562   0.3094   0.0438     H
O       0.8573   0.4337   0.4263     O
C       0.8795   0.6203   0.1575     C
H        0.883    0.647    0.515     H
H        0.903    0.845    0.802     H
C       0.9066   0.6916   0.2434     C
C       0.9159   0.3451   0.3453     C
C       0.9194   0.7344   0.6603     C
H        0.933    0.513    0.139     H
H       0.9739   0.6387   0.3005     H
