data_I
_chemical_name_common  '/home/zhangsd/repos/MofS-CGCNN/ML/data/WS24/clean_cifs/RUVMIF'
_cell_length_a 13.34846
_cell_length_b 13.34846
_cell_length_c 14.04130
_cell_angle_alpha 112.24516
_cell_angle_beta  112.24516
_cell_angle_gamma 101.74524
_space_group_name_H-M_alt      'P 1'


loop_
_space_group_symop_operation_xyz
  'x, y, z' 

loop_
_atom_site_label
_atom_site_fract_x
_atom_site_fract_y
_atom_site_fract_z
_atom_site_type_symbol
C       0.0039   0.1045   0.4208     C
O      0.00983  0.92617   0.8772     O
C       0.0107   0.2581   0.8718     C
N      0.02197  0.92257  0.69054     N
C       0.0281   0.2221   0.9464     C
C       0.0425   0.3675   0.4558     C
C       0.0561   0.2305   0.0096     C
C       0.0583   0.8531   0.4262     C
C       0.0731   0.3679   0.9262     C
C       0.0732   0.3562   0.3688     C
C       0.0831   0.6837   0.5792     C
C       0.0862   0.1032   0.3146     C
C       0.0867   0.9117   0.5442     C
C        0.087   0.0904   0.2056     C
N       0.1008   0.3114   0.1026     N
C       0.1137   0.8611   0.3718     C
N      0.12087  0.14787  0.49674     N
N      0.12413  0.65113  0.50326     N
C       0.1321   0.4269   0.5738     C
C       0.1325   0.4575   0.0442     C
C       0.1438   0.4268   0.1312     C
O      0.15073  0.75973  0.89746     O
N      0.15113  0.62413  0.00326     N
N      0.16857  0.76797  0.69054     N
C       0.1747   0.1477   0.4302     C
O      0.17628  0.09368  0.19616     O
C       0.1837   0.5831   0.0792     C
Nd    0.187897 0.937897 0.875794    Nd
N       0.1886   0.3992   0.3974     N
C       0.2044   0.9874   0.6312     C
C       0.2078   0.8146   0.0092     C
C       0.2175   0.7445   0.0698     C
C       0.2243   0.9183   0.4464     C
C       0.2419   0.4893   0.6282     C
C       0.2445   0.7175   0.5698     C
O      0.24673  0.13773  0.89746     O
O      0.25772   0.9268  0.06592     O
O      0.25973  0.65073  0.39746     O
N      0.26797  0.66857  0.19054     N
C       0.2695   0.4439   0.4904     C
C       0.2716   0.7886   0.6854     C
C       0.2779   0.4719   0.5536     C
C       0.2791   0.9535   0.5096     C
C       0.2886   0.7716   0.1854     C
N       0.2912   0.0018   0.6026     N
C       0.3014   0.1946   0.0092     C
C       0.3054   0.1986   0.4908     C
O       0.3082  0.13912  0.06592     O
C       0.3146   0.7078   0.5092     C
N      0.35213  0.37913  0.00326     N
C       0.3523   0.3253   0.0698     C
C       0.3531   0.5583   0.9262     C
O      0.36088   0.1918  0.43408     O
C       0.3611   0.6137   0.8718     C
O      0.36227  0.25327  0.60254     O
O      0.36737  0.95103   0.8772     O
Nd       0.375    0.125     0.25    Nd
C       0.3814   0.8848   0.7944     C
C       0.3848   0.8814   0.2944     C
C       0.3955   0.4961   0.0792     C
C       0.3968   0.4138   0.1854     C
O      0.39752  0.98012  0.30384     O
O      0.40632  0.32372  0.30384     O
C       0.4096    0.413   0.2944     C
C       0.4117   0.5867   0.0442     C
C       0.4183   0.7243   0.9464     C
N      0.42257  0.52197  0.19054     N
O      0.42617  0.50983   0.3772     O
O       0.4268  0.75772  0.56592     O
Nd    0.437897 0.687897 0.375794    Nd
O      0.45103  0.86737   0.3772     O
C       0.4535   0.7791   0.0096     C
O      0.48012  0.89752  0.80384     O
C       0.4874   0.7044   0.1312     C
N       0.4982   0.2088   0.8974     N
N       0.5018   0.7912   0.1026     N
C       0.5126   0.2956   0.8688     C
O      0.51988  0.10248  0.19616     O
C       0.5465   0.2209   0.9904     C
O      0.54897  0.13263   0.6228     O
Nd    0.562103 0.312103 0.624206    Nd
O       0.5732  0.24228  0.43408     O
O      0.57383  0.49017   0.6228     O
N      0.57743  0.47803  0.80946     N
C       0.5817   0.2757   0.0536     C
C       0.5883   0.4133   0.9558     C
C       0.5904    0.587   0.7056     C
O      0.59368  0.67628  0.69616     O
O      0.60248  0.01988  0.69616     O
C       0.6032   0.5862   0.8146     C
C       0.6045   0.5039   0.9208     C
C       0.6152   0.1186   0.7056     C
C       0.6186   0.1152   0.2056     C
Nd       0.625    0.875     0.75    Nd
O      0.63263  0.04897   0.1228     O
O      0.63773  0.74673  0.39746     O
C       0.6389   0.3863   0.1282     C
O      0.63912   0.8082  0.56592     O
C       0.6469   0.4417   0.0738     C
C       0.6477   0.6747   0.9302     C
N      0.64787  0.62087  0.99674     N
C       0.6854   0.2922   0.4908     C
O       0.6918  0.86088  0.93408     O
C       0.6946   0.8014   0.5092     C
C       0.6986   0.8054   0.9908     C
N       0.7088   0.9982   0.3974     N
C       0.7114   0.2284   0.8146     C
C       0.7209   0.0465   0.4904     C
C       0.7221   0.5281   0.4464     C
C       0.7284   0.2114   0.3146     C
C       0.7305   0.5561   0.5096     C
N      0.73203  0.33143  0.80946     N
O      0.74027  0.34927  0.60254     O
O      0.74228   0.0732  0.93408     O
O      0.75327  0.86227  0.10254     O
C       0.7555   0.2825   0.4302     C
C       0.7581   0.5107   0.3718     C
C       0.7757   0.0817   0.5536     C
C       0.7825   0.2555   0.9302     C
C       0.7922   0.1854   0.9908     C
C       0.7956   0.0126   0.3688     C
N       0.8114   0.6008   0.6026     N
Nd    0.812103 0.062103 0.124206    Nd
C       0.8163   0.4169   0.9208     C
O      0.82372  0.90632  0.80384     O
C       0.8253   0.8523   0.5698     C
N      0.83143  0.23203  0.30946     N
N      0.84887  0.37587  0.99674     N
O      0.84927  0.24027  0.10254     O
C       0.8562   0.5732   0.8688     C
C       0.8675   0.5425   0.9558     C
C       0.8679   0.5731   0.4262     C
N      0.87587  0.34887  0.49674     N
N      0.87913  0.85213  0.50326     N
C       0.8863   0.1389   0.6282     C
N       0.8992   0.6886   0.8974     N
C        0.913   0.9096   0.7944     C
C       0.9133   0.0883   0.4558     C
C       0.9138   0.8968   0.6854     C
C       0.9169   0.3163   0.4208     C
C       0.9268   0.6438   0.6312     C
C       0.9269   0.6321   0.0738     C
C       0.9417   0.1469   0.5738     C
C       0.9439   0.7695   0.9904     C
C       0.9575   0.6325   0.5442     C
C       0.9609   0.7509   0.0884     C
N      0.97803  0.07743  0.30946     N
O      0.99017  0.07383   0.1228     O
C       0.9961   0.8955   0.5792     C
