data_I
_chemical_name_common  '/home/zhangsd/repos/MofS-CGCNN/ML/data/WS24/clean_cifs/RUWWOW01'
_cell_length_a  9.36000
_cell_length_b  9.93600
_cell_length_c 11.38400
_cell_angle_alpha 93.18200
_cell_angle_beta  97.61700
_cell_angle_gamma 110.27100
_space_group_name_H-M_alt      'P 1'


loop_
_space_group_symop_operation_xyz
  'x, y, z' 

loop_
_atom_site_label
_atom_site_fract_x
_atom_site_fract_y
_atom_site_fract_z
_atom_site_type_symbol
C       0.0043    0.324   0.6114     C
C       0.0055    0.437   0.1556     C
C       0.0207   0.1648   0.4557     C
C        0.042   0.5745    0.207     C
O        0.058   0.8361   0.9702     O
O       0.0623   0.3978   0.7248     O
H       0.0702   0.1071   0.4257     H
C       0.0718   0.2581   0.0296     C
C       0.0756    0.238   0.5687     C
H       0.0858   0.6355   0.8352     H
C       0.1067   0.8238   0.6135     C
C        0.108   0.4072    0.089     C
O       0.1138   0.9984   0.7711     O
C       0.1229   0.6591   0.4581     C
H       0.1604   0.2284   0.6151     H
H       0.1705   0.5991   0.4289     H
C       0.1708   0.9108   0.7322     C
C       0.1728   0.6895   0.1905     C
C       0.1758   0.7336   0.5709     C
O       0.1778   0.2359   0.9813     O
H       0.1904   0.7838   0.2207     H
C       0.2436   0.5153   0.0763     C
H        0.259   0.7226   0.6185     H
C       0.2762   0.6559   0.1262     C
La     0.28439  0.04801  0.98309    La
O       0.2864   0.8939   0.7957     O
H       0.3133   0.4941   0.0344     H
O       0.4168   0.8946   0.0782     O
C       0.4217   0.7735   0.1077     C
O       0.4555   0.2544   0.8816     O
O       0.5445   0.7456   0.1184     O
C       0.5783   0.2265   0.8923     C
O       0.5832   0.1054   0.9218     O
H       0.6867   0.5059   0.9656     H
O       0.7136   0.1061   0.2043     O
La     0.71561  0.95199  0.01691    La
C       0.7238   0.3441   0.8738     C
H        0.741   0.2774   0.3815     H
C       0.7564   0.4847   0.9237     C
H       0.8096   0.2162   0.7793     H
O       0.8222   0.7641   0.0187     O
C       0.8242   0.2664   0.4291     C
C       0.8272   0.3105   0.8095     C
C       0.8292   0.0892   0.2678     C
H       0.8295   0.4009   0.5711     H
H       0.8396   0.7716   0.3849     H
C       0.8771   0.3409   0.5419     C
O       0.8862   0.0016   0.2289     O
C        0.892   0.5928    0.911     C
C       0.8933   0.1762   0.3865     C
H       0.9142   0.3645   0.1648     H
C       0.9244    0.762   0.4313     C
C       0.9282   0.7419   0.9704     C
H       0.9298   0.8929   0.5743     H
O       0.9377   0.6022   0.2752     O
O        0.942   0.1639   0.0298     O
C        0.958   0.4255    0.793     C
C       0.9793   0.8352   0.5443     C
C       0.9945    0.563   0.8444     C
C       0.9957    0.676   0.3886     C
