data_I
_chemical_name_common  '/home/zhangsd/repos/MofS-CGCNN/ML/data/WS24/clean_cifs/RUWXOX'
_cell_length_a  8.84900
_cell_length_b 11.17100
_cell_length_c 12.66700
_cell_angle_alpha 73.68600
_cell_angle_beta  85.00500
_cell_angle_gamma 74.93000
_space_group_name_H-M_alt      'P 1'


loop_
_space_group_symop_operation_xyz
  'x, y, z' 

loop_
_atom_site_label
_atom_site_fract_x
_atom_site_fract_y
_atom_site_fract_z
_atom_site_type_symbol
C       0.0084   0.7926   0.8289     C
H       0.0266   0.5882   0.0709     H
C       0.0382   0.2647   0.0644     C
H       0.0414   0.0741   0.8816     H
H       0.0462   0.2998   0.3434     H
H       0.0494   0.4047   0.6866     H
C       0.0501   0.3592   0.3845     C
O       0.0571   0.0319   0.3336     O
C       0.0575   0.6258   0.9999     C
H        0.094   0.3123   0.4554     H
C       0.1026   0.0884   0.2384     C
N        0.109   0.5644   0.6013     N
H       0.1139   0.0917   0.7625     H
H       0.1141   0.4155   0.3456     H
H       0.1232   0.1867   0.8309     H
C       0.1255   0.0991   0.8348     C
H       0.1348   0.2286   0.0367     H
C       0.1434   0.4277   0.6538     C
H        0.146    0.986    0.592     H
C       0.1512   0.7359   0.7884     C
H        0.165   0.9179   0.0055     H
H       0.1831   0.7731   0.7175     H
H       0.1836   0.3813   0.5999     H
O       0.1948   0.7388   0.5082     O
C          0.2   0.5729   0.9572     C
C       0.2172   0.6224   0.5497     C
H         0.22   0.4063   0.7096     H
O       0.2311   0.9819    0.548     O
O       0.2344   0.0494   0.1997     O
C       0.2462    0.626   0.8507     C
C       0.2713   0.9149   0.9811     C
N       0.2739   0.0157   0.8797     N
O       0.2867   0.7661   0.2519     O
O       0.2985   0.4593   0.0171     O
H        0.306    0.022    0.552     H
H       0.3074   0.6405   0.1091     H
H       0.3176   0.5716   0.5444     H
H        0.319   0.8326   0.9681     H
H       0.3282   0.9276   0.0365     H
C       0.3326   0.4525   0.1236     C
C        0.335   0.5588   0.1575     C
H       0.3407   0.5875    0.822     H
La     0.34263  0.88885  0.38145    La
H       0.3588   0.2579   0.1743     H
C        0.365   0.3286   0.1971     C
C       0.3785   0.5437   0.2642     C
C       0.3785   0.6581   0.3004     C
C       0.4048   0.0315   0.8301     C
C       0.4063   0.3137   0.3041     C
O       0.4147   0.1146   0.7444     O
C       0.4157   0.4225   0.3378     C
O       0.4241   0.0932   0.3531     O
C       0.4262   0.1872   0.3877     C
O       0.4438   0.1819   0.4865     O
H       0.4465   0.4125   0.4087     H
O       0.4644   0.6469    0.379     O
H       0.4972   0.9762   0.8615     H
H       0.5028   0.0238   0.1385     H
O       0.5356   0.3531    0.621     O
H       0.5535   0.5875   0.5913     H
O       0.5562   0.8181   0.5135     O
C       0.5738   0.8128   0.6123     C
O       0.5759   0.9068   0.6469     O
C       0.5843   0.5775   0.6622     C
O       0.5853   0.8854   0.2556     O
C       0.5937   0.6863   0.6959     C
C       0.5952   0.9685   0.1699     C
C       0.6215   0.3419   0.6996     C
C       0.6215   0.4563   0.7358     C
C        0.635   0.6714   0.8029     C
H       0.6412   0.7421   0.8257     H
La     0.65737  0.11115  0.61855    La
H       0.6593   0.4125    0.178     H
C        0.665   0.4412   0.8425     C
C       0.6674   0.5475   0.8764     C
H       0.6718   0.0724   0.9635     H
H        0.681   0.1674   0.0319     H
H       0.6824   0.4284   0.4556     H
H       0.6926   0.3595   0.8909     H
H        0.694    0.978    0.448     H
O       0.7015   0.5407   0.9829     O
O       0.7133   0.2339   0.7481     O
N       0.7261   0.9843   0.1203     N
C       0.7287   0.0851   0.0189     C
C       0.7538    0.374   0.1493     C
O       0.7656   0.9506   0.8003     O
O       0.7689   0.0181    0.452     O
H         0.78   0.5937   0.2904     H
C       0.7828   0.3776   0.4503     C
C          0.8   0.4271   0.0428     C
O       0.8052   0.2612   0.4918     O
H       0.8164   0.6187   0.4001     H
H       0.8169   0.2269   0.2825     H
H        0.835   0.0821   0.9945     H
C       0.8488   0.2641   0.2116     C
H        0.854    0.014    0.408     H
C       0.8566   0.5723   0.3462     C
H       0.8652   0.7714   0.9633     H
C       0.8745   0.9009   0.1652     C
H       0.8768   0.8133   0.1691     H
H       0.8859   0.5845   0.6544     H
H       0.8861   0.9083   0.2375     H
N        0.891   0.4356   0.3987     N
C       0.8974   0.9116   0.7616     C
H        0.906   0.6877   0.5446     H
C       0.9425   0.3742   0.0001     C
O       0.9429   0.9681   0.6664     O
C       0.9499   0.6408   0.6155     C
H       0.9506   0.5953   0.3134     H
H       0.9538   0.7002   0.6566     H
H       0.9586   0.9259   0.1184     H
C       0.9618   0.7353   0.9356     C
H       0.9734   0.4118   0.9291     H
C       0.9916   0.2074   0.1711     C
