data_I
_chemical_name_common  '/home/zhangsd/repos/MofS-CGCNN/ML/data/WS24/clean_cifs/RUYNOQ'
_cell_length_a 12.44600
_cell_length_b 13.46000
_cell_length_c 17.87200
_cell_angle_alpha 90.00000
_cell_angle_beta  90.00000
_cell_angle_gamma 97.11200
_space_group_name_H-M_alt      'P 1'


loop_
_space_group_symop_operation_xyz
  'x, y, z' 

loop_
_atom_site_label
_atom_site_fract_x
_atom_site_fract_y
_atom_site_fract_z
_atom_site_type_symbol
H       0.0048   0.8043   0.1945     H
C       0.0049   0.7947   0.7341     C
C       0.0051   0.9009   0.6202     C
O        0.012   0.3727   0.7145     O
H       0.0125   0.2021   0.9407     H
O       0.0136   0.5193   0.6915     O
N       0.0159   0.7041     0.85     N
C       0.0194   0.1429   0.9111     C
N       0.0229   0.5514   0.2766     N
O       0.0301   0.0883   0.4439     O
O       0.0309   0.3464   0.1024     O
C       0.0316   0.2879   0.2236     C
C       0.0356   0.1921   0.3362     C
H       0.0429   0.7364   0.4669     H
N       0.0485   0.8443   0.3931     N
H       0.0513   0.8965   0.0914     H
C        0.056   0.1743   0.8324     C
H       0.0581   0.8425   0.7534     H
O       0.0718   0.9625   0.6524     O
H       0.0777   0.1167   0.8064     H
H       0.0806   0.9359   0.3091     H
C       0.0839   0.7671   0.4279     C
H       0.0936   0.9686   0.8791     H
C       0.0988   0.0814   0.9495     C
Cd     0.10212  0.09036  0.56535    Cd
O       0.1029    0.751   0.8624     O
C        0.106   0.8839   0.3354     C
C       0.1111   0.5446   0.2218     C
C       0.1115   0.3614   0.2492     C
C       0.1128   0.2649    0.365     C
H       0.1273   0.6932   0.2027     H
C       0.1281   0.9966   0.9217     C
H       0.1284   0.1727   0.0385     H
H       0.1353   0.3108   0.8662     H
H       0.1393    0.259   0.4132     H
C       0.1484   0.1158   0.0154     C
C       0.1494   0.3453   0.3218     C
C       0.1504   0.2593   0.8311     C
C       0.1507   0.4542   0.2069     C
C        0.153    0.634   0.1886     C
H       0.1554   0.2889   0.7816     H
O       0.1693   0.6291   0.5735     O
O       0.1696   0.2654   0.5429     O
C       0.1783   0.7311   0.4086     C
H       0.1807   0.4541   0.5772     H
O       0.1975   0.5413   0.8181     O
H          0.2    0.677   0.4344     H
C        0.201   0.8516   0.3129     C
C       0.2071   0.9507   0.9544     C
C        0.219   0.2663   0.6031     C
O       0.2191   0.4431   0.4192     O
N        0.221   0.6303   0.6317     N
O       0.2262     0.19   0.6418     O
H       0.2264   0.8928   0.9324     H
C       0.2266   0.0665   0.0468     C
N       0.2298   0.4215   0.3551     N
C       0.2306   0.4593   0.1524     C
C       0.2312   0.4532   0.6154     C
C       0.2317   0.6357   0.1355     C
O       0.2319   0.7008   0.6716     O
H       0.2383   0.8814    0.272     H
H       0.2411   0.9088   0.5911     H
N       0.2412   0.0155   0.5168     N
C       0.2415   0.7749   0.3509     C
C       0.2585   0.2251   0.8509     C
N       0.2588   0.9845   0.0168     N
H       0.2589   0.0912   0.0911     H
H       0.2617   0.1186    0.772     H
O       0.2681   0.2992   0.1716     O
C       0.2683   0.3643   0.6355     C
C       0.2688   0.5468   0.1154     C
C       0.2694   0.5407   0.6524     C
N       0.2702   0.5785   0.8551     N
C       0.2734   0.9335   0.5468     C
H       0.2736   0.1072   0.4324     H
O       0.2738     0.81   0.1418     O
N        0.279   0.3697   0.1317     N
O       0.2809   0.5569   0.9192     O
C        0.281   0.7337   0.1031     C
C       0.2929   0.0493   0.4544     C
C        0.299   0.1484   0.8129     C
H          0.3    0.323   0.9344     H
O       0.3025   0.4587   0.3181     O
H       0.3193   0.5459   0.0772     H
C       0.3217   0.2689   0.9086     C
O       0.3304   0.7346   0.0429     O
O       0.3307   0.3709   0.0735     O
H       0.3446   0.7111   0.2816     H
C        0.347    0.366   0.6886     C
C       0.3493   0.5458   0.7069     C
C       0.3496   0.7407   0.3311     C
C       0.3506   0.6547   0.8218     C
C       0.3516   0.8842   0.5154     C
H       0.3607    0.741   0.9132     H
H       0.3647   0.6892   0.3662     H
H       0.3716   0.8273   0.5385     H
C       0.3719   0.0034   0.4217     C
H       0.3727   0.3068   0.7027     H
C       0.3872   0.7351    0.865     C
C       0.3885   0.6386   0.7492     C
C       0.3889   0.4554   0.7218     C
C        0.394   0.1161   0.8354     C
O       0.3971    0.249   0.3624     O
Cd     0.39788  0.90964  0.06535    Cd
C       0.4012   0.9186   0.4495     C
H       0.4064   0.0314   0.3791     H
C       0.4161   0.2329   0.9279     C
H       0.4194   0.0641   0.8091     H
H       0.4223   0.8833   0.3064     H
O       0.4282   0.0375   0.1524     O
H       0.4419   0.1575   0.2534     H
C        0.444   0.8257   0.3324     C
H       0.4487   0.1035   0.5914     H
N       0.4515   0.1557   0.8931     N
H       0.4571   0.2636   0.9669     H
C       0.4644   0.8079   0.8362     C
C       0.4684   0.7121   0.7236     C
O       0.4691   0.6536   0.6024     O
O       0.4699   0.9117   0.9439     O
N       0.4771   0.4486   0.7766     N
C       0.4806   0.8571   0.4111     C
N       0.4841   0.2959     0.35     N
O       0.4864   0.4807   0.1915     O
H       0.4875   0.7979   0.4407     H
O        0.488   0.6273   0.2145     O
C       0.4949   0.0991   0.1202     C
C       0.4951   0.2053   0.2341     C
H       0.4952   0.1957   0.6945     H
H       0.5048   0.8043   0.3055     H
C       0.5049   0.7947   0.7659     C
C       0.5051   0.9009   0.8798     C
O        0.512   0.3727   0.7855     O
H       0.5125   0.2021   0.5593     H
O       0.5136   0.5193   0.8085     O
N       0.5159   0.7041     0.65     N
C       0.5194   0.1429   0.5889     C
N       0.5229   0.5514   0.2234     N
O       0.5301   0.0883   0.0561     O
O       0.5309   0.3464   0.3976     O
C       0.5316   0.2879   0.2764     C
C       0.5356   0.1921   0.1638     C
H       0.5429   0.7364   0.0331     H
N       0.5485   0.8443   0.1069     N
H       0.5513   0.8965   0.4086     H
C        0.556   0.1743   0.6676     C
H       0.5581   0.8425   0.7466     H
O       0.5718   0.9625   0.8476     O
H       0.5777   0.1167   0.6936     H
H       0.5806   0.9359   0.1909     H
C       0.5839   0.7671   0.0721     C
H       0.5936   0.9686   0.6209     H
C       0.5988   0.0814   0.5505     C
Cd     0.60212  0.09036  0.93465    Cd
O       0.6029    0.751   0.6376     O
C        0.606   0.8839   0.1646     C
C       0.6111   0.5446   0.2782     C
C       0.6115   0.3614   0.2508     C
C       0.6128   0.2649    0.135     C
H       0.6273   0.6932   0.2973     H
C       0.6281   0.9966   0.5783     C
H       0.6284   0.1727   0.4615     H
H       0.6353   0.3108   0.6338     H
H       0.6393    0.259   0.0868     H
C       0.6484   0.1158   0.4846     C
C       0.6494   0.3453   0.1782     C
C       0.6504   0.2593   0.6689     C
C       0.6507   0.4542   0.2931     C
C        0.653    0.634   0.3114     C
H       0.6554   0.2889   0.7184     H
O       0.6693   0.6291   0.9265     O
O       0.6696   0.2654   0.9571     O
C       0.6783   0.7311   0.0914     C
H       0.6807   0.4541   0.9228     H
O       0.6975   0.5413   0.6819     O
H          0.7    0.677   0.0656     H
C        0.701   0.8516   0.1871     C
C       0.7071   0.9507   0.5456     C
C        0.719   0.2663   0.8969     C
O       0.7191   0.4431   0.0808     O
N        0.721   0.6303   0.8683     N
O       0.7262     0.19   0.8582     O
H       0.7264   0.8928   0.5676     H
C       0.7266   0.0665   0.4532     C
N       0.7298   0.4215   0.1449     N
C       0.7306   0.4593   0.3476     C
C       0.7312   0.4532   0.8846     C
C       0.7317   0.6357   0.3645     C
O       0.7319   0.7008   0.8284     O
H       0.7383   0.8814    0.228     H
H       0.7411   0.9088   0.9089     H
N       0.7412   0.0155   0.9832     N
C       0.7415   0.7749   0.1491     C
C       0.7585   0.2251   0.6491     C
N       0.7588   0.9845   0.4832     N
H       0.7589   0.0912   0.4089     H
H       0.7617   0.1186    0.728     H
O       0.7681   0.2992   0.3284     O
C       0.7683   0.3643   0.8645     C
C       0.7688   0.5468   0.3846     C
C       0.7694   0.5407   0.8476     C
N       0.7702   0.5785   0.6449     N
C       0.7734   0.9335   0.9532     C
H       0.7736   0.1072   0.0676     H
O       0.7738     0.81   0.3582     O
N        0.779   0.3697   0.3683     N
O       0.7809   0.5569   0.5808     O
C        0.781   0.7337   0.3969     C
C       0.7929   0.0493   0.0456     C
C        0.799   0.1484   0.6871     C
H          0.8    0.323   0.5656     H
O       0.8025   0.4587   0.1819     O
H       0.8193   0.5459   0.4228     H
C       0.8217   0.2689   0.5914     C
O       0.8304   0.7346   0.4571     O
O       0.8307   0.3709   0.4265     O
H       0.8446   0.7111   0.2184     H
C        0.847    0.366   0.8114     C
C       0.8493   0.5458   0.7931     C
C       0.8496   0.7407   0.1689     C
C       0.8506   0.6547   0.6782     C
C       0.8516   0.8842   0.9846     C
H       0.8607    0.741   0.5868     H
H       0.8647   0.6892   0.1338     H
H       0.8716   0.8273   0.9615     H
C       0.8719   0.0034   0.0783     C
H       0.8727   0.3068   0.7973     H
C       0.8872   0.7351    0.635     C
C       0.8885   0.6386   0.7508     C
C       0.8889   0.4554   0.7782     C
C        0.894   0.1161   0.6646     C
O       0.8971    0.249   0.1376     O
Cd     0.89788  0.90964  0.43465    Cd
C       0.9012   0.9186   0.0505     C
H       0.9064   0.0314   0.1209     H
C       0.9161   0.2329   0.5721     C
H       0.9194   0.0641   0.6909     H
H       0.9223   0.8833   0.1936     H
O       0.9282   0.0375   0.3476     O
H       0.9419   0.1575   0.2466     H
C        0.944   0.8257   0.1676     C
H       0.9487   0.1035   0.9086     H
N       0.9515   0.1557   0.6069     N
H       0.9571   0.2636   0.5331     H
C       0.9644   0.8079   0.6638     C
C       0.9684   0.7121   0.7764     C
O       0.9691   0.6536   0.8976     O
O       0.9699   0.9117   0.5561     O
N       0.9771   0.4486   0.7234     N
C       0.9806   0.8571   0.0889     C
N       0.9841   0.2959     0.15     N
O       0.9864   0.4807   0.3085     O
H       0.9875   0.7979   0.0593     H
O        0.988   0.6273   0.2855     O
C       0.9949   0.0991   0.3798     C
C       0.9951   0.2053   0.2659     C
H       0.9952   0.1957   0.8055     H
