data_I
_chemical_name_common  '/home/zhangsd/repos/MofS-CGCNN/ML/data/WS24/clean_cifs/RUYNEG'
_cell_length_a 13.74979
_cell_length_b 13.74979
_cell_length_c 25.12800
_cell_angle_alpha 79.46684
_cell_angle_beta  79.46684
_cell_angle_gamma 67.18482
_space_group_name_H-M_alt      'P 1'


loop_
_space_group_symop_operation_xyz
  'x, y, z' 

loop_
_atom_site_label
_atom_site_fract_x
_atom_site_fract_y
_atom_site_fract_z
_atom_site_type_symbol
N       0.0119   0.5801  0.32575     N
O        0.017   0.1994    0.763     O
O       0.0181   0.8135   0.1582     O
O      0.02639  0.42499  0.94925     O
O       0.0281   0.5111   0.3712     O
O       0.0289   0.1553   0.8493     O
H       0.0327   0.3023   0.8856     H
O      0.03538  0.35758  0.23381     O
O       0.0424   0.5496   0.2843     O
H       0.0469   0.3123   0.5933     H
N      0.05152  0.19912  0.80773     N
C       0.0657   0.3307   0.8545     C
C       0.0742    0.463  0.90885     C
O      0.07729  0.28929  0.04239     O
H        0.081   0.3124   0.1396     H
C       0.0832   0.3242  0.66558     C
C       0.0855   0.2887  0.80596     C
C       0.0954   0.4154   0.8566     C
Gd     0.09568   0.6234  0.98561    Gd
C        0.096   0.2802  0.61821     C
O       0.0977   0.8001   0.3557     O
O      0.10693  0.53633  0.90859     O
O       0.1123   0.1243   0.7796     O
O      0.11398  0.14878  0.53812     O
O       0.1173   0.7913    0.273     O
O       0.1243   0.1123   0.2796     O
N       0.1323   0.3139  0.23279     N
C       0.1338   0.3274  0.75743     C
C       0.1346   0.1948  0.05865     C
C       0.1425   0.2537  0.14588     C
C       0.1448   0.4556  0.80976     C
O      0.14878  0.11398  0.03812     O
C       0.1524   0.2806  0.70513     C
O       0.1553   0.0289   0.3493     O
N       0.1572   0.7744   0.3139     N
O       0.1573   0.6431   0.3283     O
C        0.162   0.4126  0.76148     C
H       0.1663   0.5115   0.8106     H
N       0.1672   0.7234   0.3372     N
O      0.17417  0.61177  0.06432     O
C       0.1818   0.1884  0.60836     C
O       0.1853   0.4625   0.6683     O
O      0.18539  0.32839  0.26268     O
O       0.1865   0.9819   0.3418     O
C       0.1884   0.1818  0.10836     C
C       0.1886   0.2378  0.19286     C
C       0.1948   0.1346  0.55865     C
O      0.19793  0.45613  0.11696     O
C       0.1981   0.5479   0.1069     C
N      0.19912  0.05152  0.30773     N
O       0.1994    0.017    0.263     O
O       0.1999   0.9023   0.1443     O
H       0.2018   0.7374   0.1131     H
O       0.2087   0.8827    0.227     O
N       0.2156   0.4596  0.71396     N
O       0.2187   0.5499   0.7172     O
N       0.2256   0.8428   0.1861     N
C       0.2272   0.6912   0.1437     C
C       0.2326    0.588   0.1499     C
C       0.2378   0.1886  0.69286     C
C       0.2537   0.1425  0.64588     C
C       0.2595   0.7257   0.1831     C
O       0.2604   0.4094   0.6764     O
H       0.2626   0.7982   0.3869     H
C       0.2701   0.5209   0.1955     C
H       0.2731   0.4511   0.2007     H
O       0.2736    0.498   0.7185     O
C       0.2743   0.7405   0.3169     C
N       0.2766   0.8328   0.1628     N
C       0.2802    0.096  0.11821     C
C       0.2806   0.1524  0.20513     C
C       0.2887   0.0855  0.30596     C
O      0.28929  0.07729  0.54239     O
O       0.2997   0.5309   0.3253     O
C       0.3001   0.6617   0.2291     C
H       0.3023   0.0327   0.3856     H
C       0.3035   0.5587  0.23368     C
C       0.3088   0.7728   0.3563     C
H       0.3123   0.0469   0.0933     H
H       0.3124    0.081   0.6396     H
N       0.3139   0.1323  0.73279     N
C       0.3242   0.0832  0.16558     C
O       0.3254   0.4076   0.3009     O
C       0.3274   0.1338  0.25743     C
O      0.32839  0.18539  0.76268     O
C       0.3307   0.0657   0.3545     C
C       0.3383   0.6999   0.2709     C
N       0.3428   0.4848   0.2805     N
O       0.3569   0.8427   0.1717     O
O      0.35758  0.03538  0.73381     O
O       0.3754   0.3996   0.2807     O
Gd      0.3766  0.90432  0.51439    Gd
O      0.38823  0.82583  0.43568     O
O       0.3996   0.3754   0.7807     O
O       0.4076   0.3254   0.8009     O
O       0.4094   0.2604   0.1764     O
C        0.412   0.7674   0.3501     C
C       0.4126    0.162  0.26148     C
C       0.4154   0.0954   0.3566     C
O       0.4175   0.9361   0.2255     O
N       0.4199   0.9881  0.17425     N
O      0.42499  0.02639  0.44925     O
C       0.4413   0.6965  0.26632     C
O       0.4501   0.7813   0.7828     O
O       0.4506   0.4748    0.285     O
H       0.4511   0.2731   0.7007     H
C       0.4521   0.8019   0.3931     C
C       0.4556   0.1448  0.30976     C
O      0.45613  0.19793  0.61696     O
N       0.4596   0.2156  0.21396     N
O       0.4625   0.1853   0.1683     O
C        0.463   0.0742  0.40885     C
O      0.46367  0.89307  0.59141     O
O       0.4691   0.7003   0.1747     O
O       0.4716   0.9402   0.1384     O
O       0.4748   0.4506    0.785     O
C       0.4791   0.7299   0.3045     C
N       0.4848   0.3428   0.7805     N
H       0.4885   0.8337   0.6894     H
O        0.498   0.2736   0.2185     O
O        0.502   0.7264   0.7815     O
O       0.5111   0.0281   0.8712     O
H       0.5115   0.1663   0.3106     H
N       0.5152   0.6572   0.2195     N
C       0.5209   0.2701   0.6955     C
O       0.5252   0.5494    0.215     O
O       0.5309   0.2997   0.8253     O
O      0.53633  0.10693  0.40859     O
C        0.537   0.9258  0.59115     C
O       0.5375   0.8147   0.8317     O
N       0.5404   0.7844  0.78604     N
O      0.54387  0.80207  0.38304     O
C       0.5444   0.8552  0.69024     C
C       0.5479   0.1981   0.6069     C
H       0.5489   0.7269   0.2993     H
O       0.5494   0.5252    0.715     O
O       0.5496   0.0424   0.7843     O
O       0.5499   0.2187   0.2172     O
C       0.5587   0.3035  0.73368     C
O      0.57501  0.97361  0.55075     O
N       0.5801   0.0119  0.82575     N
C       0.5846   0.9046   0.6434     C
C       0.5874    0.838  0.73852     C
C        0.588   0.2326   0.6499     C
O       0.5906   0.7396   0.8236     O
O       0.5924   0.6746   0.1991     O
O       0.6004   0.6246   0.2193     O
O      0.61177  0.17417  0.56432     O
Gd      0.6234  0.09568  0.48561    Gd
O       0.6246   0.6004   0.7193     O
O      0.64242  0.96462  0.26619     O
O       0.6431   0.1573   0.8283     O
N       0.6572   0.5152   0.7195     N
C       0.6617   0.3001   0.7291     C
C       0.6693   0.9343   0.6455     C
O      0.67161  0.81461  0.23732     O
C       0.6726   0.8662  0.74257     C
O       0.6746   0.5924   0.6991     O
C       0.6758   0.9168  0.83442     C
N       0.6861   0.8677  0.26721     N
H       0.6876    0.919   0.3604     H
H       0.6877   0.9531   0.9067     H
C       0.6912   0.2272   0.6437     C
C       0.6965   0.4413  0.76632     C
H       0.6977   0.9673   0.6144     H
C       0.6999   0.3383   0.7709     C
O       0.7003   0.4691   0.6747     O
O      0.71071  0.92271  0.45761     O
C       0.7113   0.9145  0.69404     C
C       0.7194   0.8476  0.79487     C
C       0.7198    0.904  0.88179     C
N       0.7234   0.1672   0.8372     N
C       0.7257   0.2595   0.6831     C
O       0.7264    0.502   0.2815     O
H       0.7269   0.5489   0.7993     H
C       0.7299   0.4791   0.8045     C
H       0.7374   0.2018   0.6131     H
O       0.7396   0.5906   0.3236     O
C       0.7405   0.2743   0.8169     C
C       0.7463   0.8575  0.35412     C
C       0.7622   0.8114  0.30714     C
O        0.763   0.1122   0.8632     O
C       0.7674    0.412   0.8501     C
C       0.7728   0.3088   0.8563     C
N       0.7744   0.1572   0.8139     N
O       0.7813   0.4501   0.2828     O
N       0.7844   0.5404  0.28604     N
O       0.7913   0.1173    0.773     O
H       0.7982   0.2626   0.8869     H
O       0.8006    0.983    0.737     O
N      0.80088  0.94848  0.69227     N
C       0.8019   0.4521   0.8931     C
O      0.80207  0.54387  0.88304     O
C       0.8052   0.8654  0.44135     C
C       0.8114   0.7622  0.80714     C
C       0.8116   0.8182  0.89164     C
O       0.8135   0.0181   0.6582     O
O      0.81461  0.67161  0.73732     O
O       0.8147   0.5375   0.3317     O
C       0.8182   0.8116  0.39164     C
O      0.82583  0.38823  0.93568     O
N       0.8328   0.2766   0.6628     N
H       0.8337   0.4885   0.1894     H
C        0.838   0.5874  0.23852     C
O       0.8427   0.3569   0.6717     O
N       0.8428   0.2256   0.6861     N
O       0.8447   0.9711   0.6507     O
C       0.8476   0.7194  0.29487     C
O      0.85122  0.88602  0.96188     O
C       0.8552   0.5444  0.19024     C
C       0.8575   0.7463  0.85412     C
C       0.8654   0.8052  0.94135     C
C       0.8662   0.6726  0.24257     C
N       0.8677   0.6861  0.76721     N
O       0.8757   0.8877   0.7204     O
O       0.8827   0.2087    0.727     O
O      0.88602  0.85122  0.46188     O
O       0.8877   0.8757   0.2204     O
O       0.8878    0.237   0.6368     O
O      0.89307  0.46367  0.09141     O
C        0.904   0.7198  0.38179     C
Gd     0.90432   0.3766  0.01439    Gd
C       0.9046   0.5846   0.1434     C
C       0.9145   0.7113  0.19404     C
C       0.9168   0.6758  0.33442     C
H        0.919   0.6876   0.8604     H
O      0.92271  0.71071  0.95761     O
C       0.9258    0.537  0.09115     C
C       0.9343   0.6693   0.1455     C
O       0.9361   0.4175   0.7255     O
O       0.9402   0.4716   0.6384     O
N      0.94848  0.80088  0.19227     N
H       0.9531   0.6877   0.4067     H
O      0.96462  0.64242  0.76619     O
H       0.9673   0.6977   0.1144     H
O       0.9711   0.8447   0.1507     O
O      0.97361  0.57501  0.05075     O
O       0.9819   0.1865   0.8418     O
O        0.983   0.8006    0.237     O
N       0.9881   0.4199  0.67425     N
