data_I
_chemical_name_common  '/home/zhangsd/repos/MofS-CGCNN/ML/data/WS24/clean_cifs/RUYPAE'
_cell_length_a  9.55960
_cell_length_b 10.89440
_cell_length_c 14.01997
_cell_angle_alpha 112.86315
_cell_angle_beta  90.83205
_cell_angle_gamma 90.00000
_space_group_name_H-M_alt      'P 1'


loop_
_space_group_symop_operation_xyz
  'x, y, z' 

loop_
_atom_site_label
_atom_site_fract_x
_atom_site_fract_y
_atom_site_fract_z
_atom_site_type_symbol
Cd         0.0  0.94197      0.0    Cd
C       0.0101    0.476    0.052     C
C       0.0145  0.25403  0.05486     C
H       0.0151    0.568   0.0874     H
C       0.0239   0.3928   0.1078     C
N       0.0288  0.16849  0.10398     N
C       0.0453   0.4416   0.2158     C
H       0.0497   0.5329   0.2544     H
C       0.0519   0.2211    0.204     C
C       0.0594   0.3551    0.263     C
H       0.0641   0.1632   0.2376     H
O        0.072  0.71403  0.61446     O
H        0.074   0.3859   0.3342     H
O       0.0768  0.88148  0.12536     O
O       0.1228  0.66866  0.45892     O
N       0.1513   0.7152   0.5496     N
H        0.166   0.9964   0.3134     H
C       0.1854  0.81244  0.12148     C
O       0.1978  0.02597  0.58094     O
C       0.2101  0.92126  0.31532     C
N       0.2295  0.04065   0.5025     N
C       0.2321  0.81074  0.22468     C
O       0.2328  0.95685   0.9553     O
H       0.2344   0.3099   0.7208     H
O       0.2384   0.1469    0.494     O
O       0.2521  0.74748  0.04396     O
C       0.2553  0.91771  0.40922     C
H       0.2793   0.7423   0.7164     H
H        0.282   0.0083   0.0106     H
O       0.2832  0.40843  0.45846     O
C       0.2902   0.3373   0.7804     C
C       0.2926  0.77032  0.58344     C
C       0.2938  0.70051  0.23082     C
H       0.2955   0.1646   0.7946     H
H        0.303    0.904    0.924     H
H       0.3065    0.625   0.1708     H
H       0.3136   0.5304   0.7988     H
C       0.3219  0.80934  0.41848     C
C       0.3266   0.2526   0.8242     C
C       0.3368  0.77536  0.67872     C
C       0.3373  0.69985   0.3245     C
C        0.339   0.4695   0.8274     C
H       0.3614   0.2267   0.3164     H
O       0.3674  0.47298  0.25396     O
O       0.3723  0.03759  0.14338     O
C       0.3741   0.8129   0.5204     C
N       0.3935  0.40275   0.4983     N
N       0.3992  0.57834  0.32608     N
C       0.4054   0.2917    0.908     C
H       0.4178   0.1182   0.9376     H
N       0.4205   0.5094   0.9114     N
O       0.4253  0.47632  0.58544     O
O       0.4462  0.77177  0.86254     O
C        0.449  0.21493  0.34126     C
C       0.4535   0.2044   0.9604     C
C       0.4564   0.4232   0.9552     C
C       0.4648  0.82864  0.71848     C
O       0.4798  0.58588  0.39676     O
C       0.4808  0.01191  0.17782     C
C       0.4965  0.30046  0.43772     C
Cd         0.5  0.72672      0.0    Cd
C       0.5035  0.86274  0.56228     C
C       0.5192  0.83409  0.82218     C
O       0.5202  0.18912  0.60324     O
C       0.5352  0.11016  0.28152     C
C       0.5436    0.468   0.0448     C
C       0.5465    0.244   0.0396     C
C        0.551  0.87367  0.65874     C
O       0.5538  0.90923  0.13746     O
O       0.5747  0.89088  0.41456     O
N       0.5795    0.598   0.0886     N
H       0.5822   0.1806   0.0624     H
C       0.5946   0.3837    0.092     C
N       0.6008  0.25226  0.67392     N
N       0.6065  0.90445   0.5017     N
C       0.6259   0.2925   0.4796     C
O       0.6277  0.89421  0.85662     O
O       0.6326  0.21902  0.74604     O
H       0.6386   0.9103   0.6836     H
C        0.661   0.6421   0.1726     C
C       0.6627  0.37535   0.6755     C
C       0.6632  0.09664  0.32128     C
C       0.6734   0.4284   0.1758     C
C       0.6781  0.39086  0.58152     C
H       0.6864   0.7316   0.2012     H
H       0.6935   0.4542   0.8292     H
H        0.697     0.98    0.076     H
H       0.7045     0.37   0.2054     H
C       0.7062  0.46969  0.76918     C
C       0.7074  0.18688  0.41656     C
C       0.7098   0.5569   0.2196     C
O       0.7168  0.94997  0.54154     O
H        0.718   0.9977   0.9894     H
H       0.7207   0.0259   0.2836     H
C       0.7447  0.50849  0.59078     C
O       0.7479  0.70352  0.95604     O
O       0.7616   0.6529    0.506     O
H       0.7656   0.5891   0.2792     H
O       0.7672  0.00155   0.0447     O
C       0.7679  0.58606  0.77532     C
N       0.7705  0.53815   0.4975     N
C       0.7899  0.60594  0.68468     C
O       0.8022  0.44503  0.41906     O
C       0.8146  0.69096  0.87852     C
H        0.834    0.683   0.6866     H
N       0.8487   0.1656   0.4504     N
O       0.8772  0.20974  0.54108     O
O       0.9232  0.75612  0.87464     O
H        0.926   0.0517   0.6658     H
O        0.928  0.09957  0.38554     O
H       0.9359   0.9256   0.7624     H
C       0.9406   0.0921    0.737     C
C       0.9481   0.0171    0.796     C
H       0.9503   0.2785   0.7456     H
C       0.9547   0.2258   0.7842     C
N       0.9712  0.06451  0.89602     N
C       0.9761    0.285   0.8922     C
H       0.9849   0.4806   0.9126     H
C       0.9855  0.19917  0.94514     C
C       0.9899    0.424    0.948     C
