data_I
_chemical_name_common  '/home/zhangsd/repos/MofS-CGCNN/ML/data/WS24/clean_cifs/RUYQIN'
_cell_length_a 24.18430
_cell_length_b 24.18430
_cell_length_c 13.02170
_cell_angle_alpha 90.00000
_cell_angle_beta  90.00000
_cell_angle_gamma 120.00000
_space_group_name_H-M_alt      'P 1'


loop_
_space_group_symop_operation_xyz
  'x, y, z' 

loop_
_atom_site_label
_atom_site_fract_x
_atom_site_fract_y
_atom_site_fract_z
_atom_site_type_symbol
La         0.0   0.3151      0.5    La
C          0.0  0.45325      0.0     C
C          0.0  0.51615      0.0     C
C          0.0  0.63125      0.0     C
N          0.0  0.69065      0.0     N
O      0.01103  0.43487  0.91687     O
H       0.0177   0.7395   0.2048     H
La     0.01823  0.35157  0.16667    La
O      0.02008  0.40239  0.33667     O
C      0.02207  0.49373  0.63273     C
H      0.02253  0.79507  0.91097     H
C      0.02327  0.43243  0.61863     C
C      0.02337  0.60813  0.65443     C
N      0.02398  0.66667  0.66667     N
C      0.02603  0.52207  0.32027     C
C      0.02693  0.57937  0.30907     C
C      0.03183  0.56017  0.92177     C
C      0.03293  0.61867  0.92207     C
O      0.03493  0.27119  0.89197     O
C      0.03542  0.70208  0.33333     C
C        0.048   0.7476   0.2554     C
O      0.04897  0.31325     0.67     O
H      0.05213  0.55067  0.86967     H
H       0.0528   0.7808   0.6106     H
H      0.05513  0.64897  0.87147     H
C      0.05853  0.74857  0.98777     C
C      0.05963  0.79847  0.93797     C
H      0.05983  0.51837  0.29427     H
H      0.06133  0.61387  0.27727     H
O      0.06215  0.43041  0.55863     O
O      0.06905  0.35342  0.99667     O
C      0.07017  0.54853  0.59533     C
C      0.07217  0.60703  0.60463     C
H      0.07283  0.68437  0.46187     H
C      0.07583  0.31007  0.95197     C
C      0.08093  0.71467  0.41127     C
C       0.0819   0.7252   0.6789     C
C       0.0873   0.7809   0.6424     C
O       0.0905   0.3223   0.2502     O
O      0.09708  0.39548   0.7747     O
C       0.0991   0.3566   0.7147     C
O      0.10153  0.34437  0.41647     O
H      0.10357  0.54743  0.56173     H
H      0.10587  0.64413  0.57763     H
C       0.1065    0.805   0.2551     C
H      0.11053  0.22977  0.89507     H
H      0.11413  0.71947  0.05607     H
C      0.11423  0.75397  0.02427     C
H        0.116   0.8348    0.203     H
C      0.11813  0.85497  0.92867     C
H      0.11923  0.88947  0.89507     H
C      0.11992  0.33333  0.33333     C
H       0.1252   0.2735   0.6276     H
H       0.1284   0.6892   0.7557     H
C       0.1318   0.7263   0.7287     C
C      0.13833  0.31127  0.96607     C
C      0.13833  0.77317  0.41157     C
C       0.1446   0.8373   0.6536     C
C      0.14503  0.26317  0.92867     C
H       0.1483   0.8748   0.6276     H
C      0.15052  0.81718  0.33333     C
C       0.1604   0.3554   0.7006     C
C       0.1627   0.3073   0.6536     C
H       0.1652   0.2812    0.203     H
H      0.16813  0.78267  0.46367     H
C      0.17063  0.81127  0.01307     C
C      0.17293  0.86167  0.96607     C
C      0.18282  0.33333  0.33333     C
H      0.18503  0.39317  0.03907     H
C       0.1883   0.7848    0.738     C
C      0.18873  0.35937  0.01307     C
C        0.195   0.3015   0.2551     C
C        0.195   0.8396   0.7006     C
C      0.20153  0.26117  0.93797     C
H      0.20493  0.22747  0.91097     H
H      0.20813  0.81497  0.03907     H
C      0.21342  0.88008  0.33333     C
H       0.2141   0.4369   0.7716     H
C       0.2152   0.4035    0.738     C
H      0.21733  0.38547  0.46367     H
C       0.2191   0.3064   0.6424     C
H       0.2192    0.272   0.6106     H
H       0.2228   0.7859   0.7716     H
C      0.22683  0.36517  0.41157     C
H      0.22747  0.20493  0.08903     H
H      0.22977  0.11053  0.10493     H
O       0.2318   0.9095   0.2502     O
C      0.23423  0.92417  0.95197     C
O      0.23625  0.96507  0.89197     O
O      0.24283  0.89847  0.41647     O
C      0.24603  0.36027  0.02427     C
C      0.25143  0.30997  0.98777     C
C       0.2524   0.3004   0.2554     C
C       0.2575   0.9009   0.7147     C
H       0.2605   0.2782   0.2048     H
C      0.26117  0.20153  0.06203     C
C      0.26317  0.14503  0.07133     C
O      0.26428  0.95103     0.67     O
O      0.27119  0.03493  0.10803     O
H        0.272   0.2192   0.3894     H
H       0.2735   0.1252   0.3724     H
C       0.2737   0.4055   0.7287     C
C       0.2748   0.3567   0.6789     C
H       0.2782   0.2605   0.7952     H
H      0.28053  0.39467  0.05607     H
H       0.2812   0.1652    0.797     H
O      0.28436  0.93095  0.99667     O
C      0.28533  0.36627  0.41127     C
C      0.29792  0.33333  0.33333     C
O       0.2984  0.90292   0.7747     O
C       0.3004   0.2524   0.7446     C
C       0.3015    0.195   0.7449     C
C       0.3064   0.2191   0.3576     C
C       0.3073   0.1627   0.3464     C
N      0.30935  0.30935      0.0     N
C      0.30997  0.25143  0.01223     C
C      0.31007  0.07583  0.04803     C
H       0.3108   0.4392   0.7557     H
C      0.31127  0.13833  0.03393     C
O      0.31325  0.04897     0.33     O
La      0.3151      0.0      0.5    La
H      0.31563  0.38847  0.46187     H
O       0.3223   0.0905   0.7498     O
C      0.33333  0.11992  0.66667     C
C      0.33333  0.18282  0.66667     C
C      0.33333  0.29792  0.66667     C
N      0.33333  0.35732  0.66667     N
La     0.33333  0.98177  0.16667    La
O      0.34437  0.10153  0.58353     O
H      0.35103  0.40617  0.87147     H
La     0.35157  0.01823  0.83333    La
O      0.35342  0.06905  0.00333     O
C       0.3554   0.1604   0.2994     C
H      0.35587  0.46173  0.57763     H
C       0.3566   0.0991   0.2853     C
C       0.3567   0.2748   0.3211     C
N      0.35732  0.33333  0.33333     N
C      0.35937  0.18873  0.98693     C
C      0.36027  0.24603  0.97573     C
C      0.36517  0.22683  0.58843     C
C      0.36627  0.28533  0.58873     C
O      0.36827  0.93785  0.55863     O
C      0.36875  0.36875      0.0     C
C      0.38133  0.41427  0.92207     C
O       0.3823  0.97992  0.33667     O
H      0.38547  0.21733  0.53633     H
H      0.38613  0.44747  0.27727     H
H      0.38847  0.31563  0.53813     H
C      0.39187  0.41523  0.65443     C
C      0.39297  0.46513  0.60463     C
H      0.39317  0.18503  0.96093     H
H      0.39467  0.28053  0.94393     H
O      0.39548  0.09708   0.2253     O
O      0.40239  0.02008  0.66333     O
C       0.4035   0.2152    0.262     C
C       0.4055   0.2737   0.2713     C
H      0.40617  0.35103  0.12853     H
C      0.40917  0.97673  0.61863     C
C      0.41427  0.38133  0.07793     C
C      0.41523  0.39187  0.34557     C
C      0.42063  0.44757  0.30907     C
O      0.42383  0.98897  0.91687     O
O      0.43041  0.06215  0.44137     O
C      0.43243  0.02327  0.38137     C
O      0.43487  0.01103  0.08313     O
H       0.4369   0.2141   0.2284     H
H       0.4392   0.3108   0.2443     H
C      0.43983  0.47167  0.92177     C
H      0.44387  0.89643  0.56173     H
H      0.44747  0.38613  0.72273     H
C      0.44757  0.42063  0.69093     C
H      0.44933  0.50147  0.86967     H
C      0.45147  0.52163  0.59533     C
H      0.45257  0.55613  0.56173     H
C      0.45325      0.0      0.0     C
H      0.45853  0.94017  0.29427     H
H      0.46173  0.35587  0.42237     H
C      0.46513  0.39297  0.39537     C
C      0.47167  0.43983  0.07823     C
C      0.47167  0.97793  0.63273     C
C      0.47793  0.50397  0.32027     C
C      0.47837  0.92983  0.59533     C
H      0.48163  0.54147  0.29427     H
C      0.48385  0.48385      0.0     C
C      0.49373  0.02207  0.36727     C
C      0.49603  0.97397  0.32027     C
H      0.49853  0.94787  0.86967     H
H      0.50147  0.44933  0.13033     H
C      0.50397  0.47793  0.67973     C
C      0.50627  0.52833  0.63273     C
C      0.51615      0.0      0.0     C
H      0.51837  0.05983  0.70573     H
C      0.52163  0.45147  0.40467     C
C      0.52207  0.02603  0.67973     C
C      0.52833  0.50627  0.36727     C
C      0.52833  0.96817  0.92177     C
C      0.53487  0.92783  0.60463     C
H      0.53827  0.89413  0.57763     H
H      0.54147  0.48163  0.70573     H
C      0.54675  0.54675      0.0     C
H      0.54743  0.10357  0.43827     H
C      0.54853  0.07017  0.40467     C
H      0.55067  0.05213  0.13033     H
C      0.55243  0.97307  0.30907     C
H      0.55253  0.93867  0.27727     H
H      0.55613  0.45257  0.43827     H
C      0.56017  0.03183  0.07823     C
H       0.5608   0.8716   0.7557     H
H       0.5631   0.7772   0.7716     H
O      0.56513  0.57617  0.91687     O
C      0.56757  0.59083  0.61863     C
O      0.56959  0.63173  0.55863     O
O      0.57617  0.56513  0.08313     O
C      0.57937  0.02693  0.69093     C
C      0.58477  0.97663  0.65443     C
C      0.58573  0.96707  0.92207     C
C      0.59083  0.56757  0.38137     C
H      0.59383  0.94487  0.87147     H
C       0.5945   0.8682   0.7287     C
C       0.5965   0.8117    0.738     C
O      0.59761   0.6177  0.33667     O
O      0.60452   0.7016   0.7747     O
H      0.60533  0.88587  0.05607     H
H      0.60683  0.79187  0.03907     H
C      0.60703  0.07217  0.39537     C
C      0.60813  0.02337  0.34557     C
H      0.61153  0.92717  0.46187     H
H      0.61387  0.06133  0.72273     H
H      0.61453  0.83187  0.46367     H
O       0.6177  0.59761  0.66333     O
C      0.61867  0.03293  0.07793     C
C      0.63125      0.0      0.0     C
O      0.63173  0.56959  0.44137     O
C      0.63373  0.91907  0.41127     C
C      0.63483  0.86167  0.41157     C
C      0.63973  0.88577  0.02427     C
C      0.64063  0.82937  0.01307     C
N      0.64268  0.97602  0.66667     N
C       0.6433   0.9181   0.6789     C
C       0.6434   0.7425   0.7147     C
H      0.64413  0.10587  0.42237     H
C       0.6446    0.805   0.7006     C
O      0.64658  0.71564  0.99667     O
La     0.64843  0.66667  0.16667    La
H      0.64897  0.05513  0.12853     H
O      0.65563  0.75717  0.41647     O
N      0.66667  0.02398  0.33333     N
La     0.66667  0.64843  0.83333    La
C      0.66667  0.78658  0.33333     C
C      0.66667  0.84948  0.33333     C
C      0.66667  0.96458  0.33333     C
O       0.6777   0.7682   0.2502     O
H      0.68437  0.07283  0.53813     H
La      0.6849   0.6849      0.5    La
O      0.68675  0.73572     0.67     O
C      0.68873  0.82707  0.96607     C
H       0.6892   0.1284   0.2443     H
C      0.68993  0.76577  0.95197     C
C      0.69003  0.94147  0.98777     C
N      0.69065      0.0      0.0     N
C       0.6927   0.8554   0.6536     C
C       0.6936   0.9127   0.6424     C
C       0.6985   0.8935   0.2551     C
C       0.6996    0.952   0.2554     C
O       0.7016  0.60452   0.2253     O
C      0.70208  0.03542  0.66667     C
C      0.71467  0.08093  0.58873     C
O      0.71564  0.64658  0.00333     O
H       0.7188    0.884    0.203     H
H      0.71947  0.11413  0.94393     H
H       0.7218   0.9823   0.2048     H
C       0.7252   0.0819   0.3211     C
C       0.7263   0.1318   0.2713     C
H       0.7265   0.8517   0.6276     H
H        0.728   0.9472   0.6106     H
O      0.72881  0.76375  0.89197     O
O      0.73572  0.68675     0.33     O
C      0.73683  0.88187  0.92867     C
C      0.73883  0.94037  0.93797     C
H       0.7395   0.0177   0.7952     H
C       0.7425   0.6434   0.2853     C
C       0.7476    0.048   0.7446     C
C      0.74857  0.05853  0.01223     C
C      0.75397  0.11423  0.97573     C
O      0.75717  0.65563  0.58353     O
O      0.76375  0.72881  0.10803     O
C      0.76577  0.68993  0.04803     C
O       0.7682   0.6777   0.7498     O
H      0.77023  0.88077  0.89507     H
H      0.77253  0.97747  0.91097     H
C      0.77317  0.13833  0.58843     C
H       0.7772   0.5631   0.2284     H
H       0.7808   0.0528   0.3894     H
C       0.7809   0.0873   0.3576     C
H      0.78267  0.16813  0.53633     H
C       0.7848   0.1883    0.262     C
H       0.7859   0.2228   0.2284     H
C      0.78658  0.66667  0.66667     C
H      0.79187  0.60683  0.96093     H
H      0.79507  0.02253  0.08903     H
C      0.79847  0.05963  0.06203     C
C        0.805   0.1065   0.7449     C
C        0.805   0.6446   0.2994     C
C      0.81127  0.17063  0.98693     C
C       0.8117   0.5965    0.262     C
H      0.81497  0.20813  0.96093     H
C      0.81718  0.15052  0.66667     C
C      0.82707  0.68873  0.03393     C
C      0.82937  0.64063  0.98693     C
H      0.83187  0.61453  0.53633     H
H       0.8348    0.116    0.797     H
C       0.8373   0.1446   0.3464     C
C       0.8396    0.195   0.2994     C
C      0.84948  0.66667  0.66667     C
H       0.8517   0.7265   0.3724     H
C      0.85497  0.11813  0.07133     C
C       0.8554   0.6927   0.3464     C
C      0.86167  0.17293  0.03393     C
C      0.86167  0.63483  0.58843     C
C       0.8682   0.5945   0.2713     C
H       0.8716   0.5608   0.2443     H
H       0.8748   0.1483   0.3724     H
C      0.88008  0.21342  0.66667     C
H      0.88077  0.77023  0.10493     H
C      0.88187  0.73683  0.07133     C
H        0.884   0.7188    0.797     H
C      0.88577  0.63973  0.97573     C
H      0.88587  0.60533  0.94393     H
H      0.88947  0.11923  0.10493     H
C       0.8935   0.6985   0.7449     C
H      0.89413  0.53827  0.42237     H
H      0.89643  0.44387  0.43827     H
O      0.89847  0.24283  0.58353     O
C       0.9009   0.2575   0.2853     C
O      0.90292   0.2984   0.2253     O
O       0.9095   0.2318   0.7498     O
C       0.9127   0.6936   0.3576     C
C       0.9181   0.6433   0.3211     C
C      0.91907  0.63373  0.58873     C
C      0.92417  0.23423  0.04803     C
H      0.92717  0.61153  0.53813     H
C      0.92783  0.53487  0.39537     C
C      0.92983  0.47837  0.40467     C
O      0.93095  0.28436  0.00333     O
O      0.93785  0.36827  0.44137     O
H      0.93867  0.55253  0.72273     H
H      0.94017  0.45853  0.70573     H
C      0.94037  0.73883  0.06203     C
C      0.94147  0.69003  0.01223     C
H      0.94487  0.59383  0.12853     H
H       0.9472    0.728   0.3894     H
H      0.94787  0.49853  0.13033     H
O      0.95103  0.26428     0.33     O
C        0.952   0.6996   0.7446     C
C      0.96458  0.66667  0.66667     C
O      0.96507  0.23625  0.10803     O
C      0.96707  0.58573  0.07793     C
C      0.96817  0.52833  0.07823     C
C      0.97307  0.55243  0.69093     C
C      0.97397  0.49603  0.67973     C
N      0.97602  0.64268  0.33333     N
C      0.97663  0.58477  0.34557     C
C      0.97673  0.40917  0.38137     C
H      0.97747  0.77253  0.08903     H
C      0.97793  0.47167  0.36727     C
O      0.97992   0.3823  0.66333     O
La     0.98177  0.33333  0.83333    La
H       0.9823   0.7218   0.7952     H
O      0.98897  0.42383  0.08313     O
