data_I
_chemical_name_common  '/home/zhangsd/repos/MofS-CGCNN/ML/data/WS24/clean_cifs/SANGUM'
_cell_length_a 18.32230
_cell_length_b 11.40050
_cell_length_c 18.85360
_cell_angle_alpha 90.00000
_cell_angle_beta  108.68100
_cell_angle_gamma 90.00000
_space_group_name_H-M_alt      'P 1'


loop_
_space_group_symop_operation_xyz
  'x, y, z' 

loop_
_atom_site_label
_atom_site_fract_x
_atom_site_fract_y
_atom_site_fract_z
_atom_site_type_symbol
Sm     0.00082   0.0668   0.3965    Sm
Sm     0.00082   0.9332   0.8965    Sm
O       0.0753   0.1676   0.5001     O
O       0.0753   0.8324   0.0001     O
O       0.0775   0.0704   0.9752     O
O       0.0775   0.9296   0.4752     O
O        0.079    0.091   0.6114     O
O        0.079    0.909   0.1114     O
O       0.0854   0.0315   0.3344     O
O       0.0854   0.9685   0.8344     O
O       0.0889   0.0749   0.2206     O
O       0.0889   0.9251   0.7206     O
O        0.095   0.1754   0.0773     O
O        0.095   0.8246   0.5773     O
C       0.1029   0.1604    0.571     C
C       0.1029   0.8396    0.071     C
C       0.1129   0.1462   0.0198     C
C       0.1129   0.8538   0.5198     C
C       0.1175   0.0766   0.2906     C
C       0.1175   0.9234   0.7906     C
N        0.168   0.1999    0.739     N
N        0.168   0.8001    0.239     N
C       0.1697    0.238   0.6091     C
C       0.1697    0.762   0.1091     C
C       0.1837   0.2024   0.0106     C
C       0.1837   0.7976   0.5106     C
H       0.1844   0.0974   0.9233     H
H       0.1844   0.2937    0.512     H
H       0.1844   0.7063    0.012     H
H       0.1844   0.9026   0.4233     H
C       0.1944   0.1344   0.3256     C
C       0.1944   0.8656   0.8256     C
N       0.1982   0.3499   0.1103     N
N       0.1982   0.6501   0.6103     N
C       0.1996   0.2497   0.6885     C
C       0.1996   0.7503   0.1885     C
H       0.2016   0.1036   0.4341     H
H       0.2016   0.8964   0.9341     H
C       0.2062   0.2965    0.565     C
C       0.2062   0.7035    0.065     C
C       0.2116   0.1589   0.9548     C
C       0.2116   0.8411   0.4548     C
H        0.212   0.1766   0.2282     H
H        0.212   0.8234   0.7282     H
C       0.2227    0.297   0.0556     C
C       0.2227    0.703   0.5556     C
C       0.2262   0.1415   0.4031     C
C       0.2262   0.8585   0.9031     C
C       0.2324   0.1855    0.281     C
C       0.2324   0.8145    0.781     C
C       0.2676   0.3145    0.719     C
C       0.2676   0.6855    0.219     C
C       0.2738   0.3585   0.5969     C
C       0.2738   0.6415   0.0969     C
C       0.2773    0.203   0.9444     C
C       0.2773    0.797   0.4444     C
H        0.288   0.3234   0.7718     H
H        0.288   0.6766   0.2718     H
C       0.2884   0.3411   0.0452     C
C       0.2884   0.6589   0.5452     C
C       0.2938   0.2035    0.435     C
C       0.2938   0.7965    0.935     C
H       0.2984   0.3964   0.5659     H
H       0.2984   0.6036   0.0659     H
C       0.3004   0.2503   0.3115     C
C       0.3004   0.7497   0.8115     C
N       0.3018   0.1501   0.8897     N
N       0.3018   0.8499   0.3897     N
C       0.3056   0.3656   0.6744     C
C       0.3056   0.6344   0.1744     C
H       0.3156   0.2063    0.488     H
H       0.3156   0.4026   0.0767     H
H       0.3156   0.5974   0.5767     H
H       0.3156   0.7937    0.988     H
C       0.3163   0.2976   0.9894     C
C       0.3163   0.7024   0.4894     C
C       0.3303    0.262   0.3909     C
C       0.3303    0.738   0.8909     C
N        0.332   0.3001    0.261     N
N        0.332   0.6999    0.761     N
C       0.3825   0.4234   0.7094     C
C       0.3825   0.5766   0.2094     C
C       0.3871   0.3538   0.9802     C
C       0.3871   0.6462   0.4802     C
C       0.3971   0.3396    0.429     C
C       0.3971   0.6604    0.929     C
O        0.405   0.3246   0.9227     O
O        0.405   0.6754   0.4227     O
O       0.4111   0.4251   0.7794     O
O       0.4111   0.5749   0.2794     O
O       0.4146   0.4685   0.6656     O
O       0.4146   0.5315   0.1656     O
O        0.421    0.409   0.3886     O
O        0.421    0.591   0.8886     O
O       0.4225   0.4296   0.0248     O
O       0.4225   0.5704   0.5248     O
O       0.4247   0.3324   0.4999     O
O       0.4247   0.6676   0.9999     O
Sm     0.49918   0.4332   0.6035    Sm
Sm     0.49918   0.5668   0.1035    Sm
Sm     0.50082   0.4332   0.8965    Sm
Sm     0.50082   0.5668   0.3965    Sm
O       0.5753   0.3324   0.0001     O
O       0.5753   0.6676   0.5001     O
O       0.5775   0.4296   0.4752     O
O       0.5775   0.5704   0.9752     O
O        0.579    0.409   0.1114     O
O        0.579    0.591   0.6114     O
O       0.5854   0.4685   0.8344     O
O       0.5854   0.5315   0.3344     O
O       0.5889   0.4251   0.7206     O
O       0.5889   0.5749   0.2206     O
O        0.595   0.3246   0.5773     O
O        0.595   0.6754   0.0773     O
C       0.6029   0.3396    0.071     C
C       0.6029   0.6604    0.571     C
C       0.6129   0.3538   0.5198     C
C       0.6129   0.6462   0.0198     C
C       0.6175   0.4234   0.7906     C
C       0.6175   0.5766   0.2906     C
N        0.668   0.3001    0.239     N
N        0.668   0.6999    0.739     N
C       0.6697    0.262   0.1091     C
C       0.6697    0.738   0.6091     C
C       0.6837   0.2976   0.5106     C
C       0.6837   0.7024   0.0106     C
H       0.6844   0.2063    0.012     H
H       0.6844   0.4026   0.4233     H
H       0.6844   0.5974   0.9233     H
H       0.6844   0.7937    0.512     H
C       0.6944   0.3656   0.8256     C
C       0.6944   0.6344   0.3256     C
N       0.6982   0.1501   0.6103     N
N       0.6982   0.8499   0.1103     N
C       0.6996   0.2503   0.1885     C
C       0.6996   0.7497   0.6885     C
H       0.7016   0.3964   0.9341     H
H       0.7016   0.6036   0.4341     H
C       0.7062   0.2035    0.065     C
C       0.7062   0.7965    0.565     C
C       0.7116   0.3411   0.4548     C
C       0.7116   0.6589   0.9548     C
H        0.712   0.3234   0.7282     H
H        0.712   0.6766   0.2282     H
C       0.7227    0.203   0.5556     C
C       0.7227    0.797   0.0556     C
C       0.7262   0.3585   0.9031     C
C       0.7262   0.6415   0.4031     C
C       0.7324   0.3145    0.781     C
C       0.7324   0.6855    0.281     C
C       0.7676   0.1855    0.219     C
C       0.7676   0.8145    0.719     C
C       0.7738   0.1415   0.0969     C
C       0.7738   0.8585   0.5969     C
C       0.7773    0.297   0.4444     C
C       0.7773    0.703   0.9444     C
H        0.788   0.1766   0.2718     H
H        0.788   0.8234   0.7718     H
C       0.7884   0.1589   0.5452     C
C       0.7884   0.8411   0.0452     C
C       0.7938   0.2965    0.935     C
C       0.7938   0.7035    0.435     C
H       0.7984   0.1036   0.0659     H
H       0.7984   0.8964   0.5659     H
C       0.8004   0.2497   0.8115     C
C       0.8004   0.7503   0.3115     C
N       0.8018   0.3499   0.3897     N
N       0.8018   0.6501   0.8897     N
C       0.8056   0.1344   0.1744     C
C       0.8056   0.8656   0.6744     C
H       0.8156   0.0974   0.5767     H
H       0.8156   0.2937    0.988     H
H       0.8156   0.7063    0.488     H
H       0.8156   0.9026   0.0767     H
C       0.8163   0.2024   0.4894     C
C       0.8163   0.7976   0.9894     C
C       0.8303    0.238   0.8909     C
C       0.8303    0.762   0.3909     C
N        0.832   0.1999    0.761     N
N        0.832   0.8001    0.261     N
C       0.8825   0.0766   0.2094     C
C       0.8825   0.9234   0.7094     C
C       0.8871   0.1462   0.4802     C
C       0.8871   0.8538   0.9802     C
C       0.8971   0.1604    0.929     C
C       0.8971   0.8396    0.429     C
O        0.905   0.1754   0.4227     O
O        0.905   0.8246   0.9227     O
O       0.9111   0.0749   0.2794     O
O       0.9111   0.9251   0.7794     O
O       0.9146   0.0315   0.1656     O
O       0.9146   0.9685   0.6656     O
O        0.921    0.091   0.8886     O
O        0.921    0.909   0.3886     O
O       0.9225   0.0704   0.5248     O
O       0.9225   0.9296   0.0248     O
O       0.9247   0.1676   0.9999     O
O       0.9247   0.8324   0.4999     O
Sm     0.99918   0.0668   0.1035    Sm
Sm     0.99918   0.9332   0.6035    Sm
