data_I
_chemical_name_common  '/home/zhangsd/repos/MofS-CGCNN/ML/data/WS24/clean_cifs/SANGIA'
_cell_length_a 11.41190
_cell_length_b 18.43690
_cell_length_c 18.96430
_cell_angle_alpha 108.26500
_cell_angle_beta  90.00000
_cell_angle_gamma 90.00000
_space_group_name_H-M_alt      'P 1'


loop_
_space_group_symop_operation_xyz
  'x, y, z' 

loop_
_atom_site_label
_atom_site_fract_x
_atom_site_fract_y
_atom_site_fract_z
_atom_site_type_symbol
O       0.0215  0.08899  0.83579     O
O       0.0215  0.91101  0.66421     O
Pr     0.06544  0.00061  0.89836    Pr
Pr     0.06544  0.99939  0.60164    Pr
O       0.0692  0.09146  0.72353     O
O       0.0692  0.90854  0.77647     O
C       0.0698   0.1195    0.792     C
C       0.0698   0.8805    0.708     C
O       0.0729  0.07996  0.49028     O
O       0.0729  0.92004  0.00972     O
H        0.073    0.282    0.376     H
H        0.073    0.718    0.124     H
H        0.099    0.182    0.432     H
H        0.099    0.818    0.068     H
H       0.1029   0.2012   0.9338     H
H       0.1029   0.7988   0.5662     H
O       0.1062  0.07595  0.11179     O
O       0.1062  0.92405  0.38821     O
C       0.1297  0.19487  0.82627     C
C       0.1297  0.80513  0.67373     C
C        0.138  0.22581  0.90322     C
C        0.138  0.77419  0.59678     C
N       0.1434   0.2942   0.3879     N
N       0.1434   0.7058   0.1121     N
C       0.1552  0.11672  0.52944     C
C       0.1552  0.88328  0.97056     C
H        0.156    0.132    0.223     H
H        0.156    0.868    0.277     H
C       0.1599  0.20919  0.45794     C
C       0.1599  0.79081  0.04206     C
H        0.165     0.33    0.372     H
H        0.165     0.67    0.128     H
H        0.166   0.2957   0.4038     H
H        0.166   0.7043   0.0962     H
H       0.1709   0.2133   0.7305     H
H       0.1709   0.7867   0.7695     H
C       0.1716  0.10251  0.07259     C
C       0.1716  0.89749  0.42741     C
O       0.1764  0.07647  0.00295     O
O       0.1764  0.92353  0.49705     O
C       0.1797   0.2329  0.78174     C
C       0.1797   0.7671  0.71826     C
O       0.1946  0.09849  0.58324     O
O       0.1946  0.90151  0.91676     O
H        0.197     0.19   0.2842     H
H        0.197     0.81   0.2158     H
C        0.198  0.29267  0.93355     C
C        0.198  0.70733  0.56645     C
C        0.199   0.2784   0.4403     C
C        0.199   0.7216   0.0597     C
H       0.2018   0.3136   0.9849     H
H       0.2018   0.6864   0.5151     H
C       0.2062  0.18519  0.51417     C
C       0.2062  0.81481  0.98583     C
N       0.2096   0.1666    0.237     N
N       0.2096   0.8334    0.263     N
C       0.2431   0.3002   0.8121     C
C       0.2431   0.6998   0.6879     C
C       0.2465  0.16983   0.1102     C
C       0.2465  0.83017   0.3898     C
C       0.2535  0.33017   0.8898     C
C       0.2535  0.66983   0.6102     C
C       0.2569   0.1998   0.1879     C
C       0.2569   0.8002   0.3121     C
N       0.2904 0.33333333    0.763     N
N       0.2904   0.6666    0.737     N
C       0.2938  0.31481  0.48583     C
C       0.2938  0.68519  0.01417     C
H       0.2982   0.1864   0.0151     H
H       0.2982   0.8136   0.4849     H
C        0.299   0.2308   0.5537     C
C        0.299   0.7692   0.9463     C
C        0.302  0.20733  0.06645     C
C        0.302  0.79267  0.43355     C
H        0.303     0.31   0.7158     H
H        0.303     0.69   0.7842     H
O       0.3054  0.40151  0.41676     O
O       0.3054  0.59849  0.08324     O
C       0.3203   0.2671  0.21826     C
C       0.3203   0.7329  0.28174     C
O       0.3236  0.42353  0.99705     O
O       0.3236  0.57647  0.50295     O
C       0.3284  0.39749  0.92741     C
C       0.3284  0.60251  0.57259     C
H       0.3291   0.2867   0.2695     H
H       0.3291   0.7133   0.2305     H
H        0.334   0.2043   0.5962     H
H        0.334   0.7957   0.9038     H
H        0.335     0.17    0.628     H
H        0.335     0.83    0.872     H
C       0.3401  0.29081  0.54206     C
C       0.3401  0.70919  0.95794     C
H        0.344    0.368    0.777     H
H        0.344    0.632    0.723     H
C       0.3448  0.38328  0.47056     C
C       0.3448  0.61672  0.02944     C
N       0.3566   0.2058   0.6121     N
N       0.3566   0.7942   0.8879     N
C        0.362  0.27419  0.09678     C
C        0.362  0.72581  0.40322     C
C       0.3703  0.30513  0.17373     C
C       0.3703  0.69487  0.32627     C
O       0.3938  0.42405  0.88821     O
O       0.3938  0.57595  0.61179     O
H       0.3971   0.2988   0.0662     H
H       0.3971   0.7012   0.4338     H
H        0.401    0.318    0.568     H
H        0.401    0.682    0.932     H
H        0.427    0.218    0.624     H
H        0.427    0.782    0.876     H
O       0.4271  0.42004  0.50972     O
O       0.4271  0.57996  0.99028     O
C       0.4302   0.3805    0.208     C
C       0.4302   0.6195    0.292     C
O       0.4308  0.40854  0.27647     O
O       0.4308  0.59146  0.22353     O
Pr     0.43456  0.49939  0.10164    Pr
Pr     0.43456  0.50061  0.39836    Pr
O       0.4785  0.41101  0.16421     O
O       0.4785  0.58899  0.33579     O
O       0.5215  0.41101  0.66421     O
O       0.5215  0.58899  0.83579     O
Pr     0.56544  0.49939  0.60164    Pr
Pr     0.56544  0.50061  0.89836    Pr
O       0.5692  0.40854  0.77647     O
O       0.5692  0.59146  0.72353     O
C       0.5698   0.3805    0.708     C
C       0.5698   0.6195    0.792     C
O       0.5729  0.42004  0.00972     O
O       0.5729  0.57996  0.49028     O
H        0.573    0.218    0.124     H
H        0.573    0.782    0.376     H
H        0.599    0.318    0.068     H
H        0.599    0.682    0.432     H
H       0.6029   0.2988   0.5662     H
H       0.6029   0.7012   0.9338     H
O       0.6062  0.42405  0.38821     O
O       0.6062  0.57595  0.11179     O
C       0.6297  0.30513  0.67373     C
C       0.6297  0.69487  0.82627     C
C        0.638  0.27419  0.59678     C
C        0.638  0.72581  0.90322     C
N       0.6434   0.2058   0.1121     N
N       0.6434   0.7942   0.3879     N
C       0.6552  0.38328  0.97056     C
C       0.6552  0.61672  0.52944     C
H        0.656    0.368    0.277     H
H        0.656    0.632    0.223     H
C       0.6599  0.29081  0.04206     C
C       0.6599  0.70919  0.45794     C
H        0.665     0.17    0.128     H
H        0.665     0.83    0.372     H
H        0.666   0.2043   0.0962     H
H        0.666   0.7957   0.4038     H
H       0.6709   0.2867   0.7695     H
H       0.6709   0.7133   0.7305     H
C       0.6716  0.39749  0.42741     C
C       0.6716  0.60251  0.07259     C
O       0.6764  0.42353  0.49705     O
O       0.6764  0.57647  0.00295     O
C       0.6797   0.2671  0.71826     C
C       0.6797   0.7329  0.78174     C
O       0.6946  0.40151  0.91676     O
O       0.6946  0.59849  0.58324     O
H        0.697     0.31   0.2158     H
H        0.697     0.69   0.2842     H
C        0.698  0.20733  0.56645     C
C        0.698  0.79267  0.93355     C
C        0.699   0.2216   0.0597     C
C        0.699   0.7784   0.4403     C
H       0.7018   0.1864   0.5151     H
H       0.7018   0.8136   0.9849     H
C       0.7062  0.31481  0.98583     C
C       0.7062  0.68519  0.51417     C
N       0.7096 0.33333333    0.263     N
N       0.7096   0.6666    0.237     N
C       0.7431   0.1998   0.6879     C
C       0.7431   0.8002   0.8121     C
C       0.7465  0.33017   0.3898     C
C       0.7465  0.66983   0.1102     C
C       0.7535  0.16983   0.6102     C
C       0.7535  0.83017   0.8898     C
C       0.7569   0.3002   0.3121     C
C       0.7569   0.6998   0.1879     C
N       0.7904   0.1666    0.737     N
N       0.7904   0.8334    0.763     N
C       0.7938  0.18519  0.01417     C
C       0.7938  0.81481  0.48583     C
H       0.7982   0.3136   0.4849     H
H       0.7982   0.6864   0.0151     H
C        0.799   0.2692   0.9463     C
C        0.799   0.7308   0.5537     C
C        0.802  0.29267  0.43355     C
C        0.802  0.70733  0.06645     C
H        0.803     0.19   0.7842     H
H        0.803     0.81   0.7158     H
O       0.8054  0.09849  0.08324     O
O       0.8054  0.90151  0.41676     O
C       0.8203   0.2329  0.28174     C
C       0.8203   0.7671  0.21826     C
O       0.8236  0.07647  0.50295     O
O       0.8236  0.92353  0.99705     O
C       0.8284  0.10251  0.57259     C
C       0.8284  0.89749  0.92741     C
H       0.8291   0.2133   0.2305     H
H       0.8291   0.7867   0.2695     H
H        0.834   0.2957   0.9038     H
H        0.834   0.7043   0.5962     H
H        0.835     0.33    0.872     H
H        0.835     0.67    0.628     H
C       0.8401  0.20919  0.95794     C
C       0.8401  0.79081  0.54206     C
H        0.844    0.132    0.723     H
H        0.844    0.868    0.777     H
C       0.8448  0.11672  0.02944     C
C       0.8448  0.88328  0.47056     C
N       0.8566   0.2942   0.8879     N
N       0.8566   0.7058   0.6121     N
C        0.862  0.22581  0.40322     C
C        0.862  0.77419  0.09678     C
C       0.8703  0.19487  0.32627     C
C       0.8703  0.80513  0.17373     C
O       0.8938  0.07595  0.61179     O
O       0.8938  0.92405  0.88821     O
H       0.8971   0.2012   0.4338     H
H       0.8971   0.7988   0.0662     H
H        0.901    0.182    0.932     H
H        0.901    0.818    0.568     H
H        0.927    0.282    0.876     H
H        0.927    0.718    0.624     H
O       0.9271  0.07996  0.99028     O
O       0.9271  0.92004  0.50972     O
C       0.9302   0.1195    0.292     C
C       0.9302   0.8805    0.208     C
O       0.9308  0.09146  0.22353     O
O       0.9308  0.90854  0.27647     O
Pr     0.93456  0.00061  0.39836    Pr
Pr     0.93456  0.99939  0.10164    Pr
O       0.9785  0.08899  0.33579     O
O       0.9785  0.91101  0.16421     O
