data_I
_chemical_name_common  '/home/zhangsd/repos/MofS-CGCNN/ML/data/WS24/clean_cifs/SANHEX'
_cell_length_a 10.78522
_cell_length_b 10.78522
_cell_length_c 18.86090
_cell_angle_alpha 74.30655
_cell_angle_beta  74.30655
_cell_angle_gamma 63.77279
_space_group_name_H-M_alt      'P 1'


loop_
_space_group_symop_operation_xyz
  'x, y, z' 

loop_
_atom_site_label
_atom_site_fract_x
_atom_site_fract_y
_atom_site_fract_z
_atom_site_type_symbol
H        0.004    0.612    0.785     H
O      0.00604  0.15044  0.01931     O
H         0.01     0.72    0.725     H
O      0.01666  0.82606  0.61094     O
O      0.01791  0.16191  0.77786     O
C       0.0198   0.6118   0.0118     C
C       0.0339   0.7361   0.0241     C
N       0.0375   0.6285   0.7376     N
H       0.0389   0.3871   0.7704     H
C       0.0447   0.1915   0.7085     C
C       0.0496   0.4156   0.7187     C
C        0.051     0.37   0.0438     C
C       0.0527   0.5479   0.6873     C
O      0.06028  0.11348  0.66446     O
C        0.061    0.479    0.058     C
C       0.0612    0.733   0.5714     C
C       0.0621   0.3269   0.6739     C
Gd     0.06499  0.93335  0.39725    Gd
Gd     0.06665  0.93501  0.10275    Gd
C       0.0719   0.5889   0.6095     C
H         0.08    0.288    0.071     H
O      0.08533  0.72133  0.07983     O
C       0.0864   0.3662   0.5965     C
C       0.0922    0.495   0.5656     C
O      0.09517  0.75377  0.50162     O
H        0.097   0.4672      0.1     H
H       0.0986   0.3058   0.5659     H
H       0.1103   0.5197   0.5138     H
O      0.11348  0.06028  0.16446     O
O      0.15044  0.00604  0.51931     O
N       0.1534   0.4462   0.1096     N
H        0.157    0.513    0.123     H
O      0.16191  0.01791  0.27786     O
O      0.17394  0.98334  0.88906     O
C       0.1915   0.0447   0.2085     C
H        0.219    0.369    0.123     H
O      0.24623  0.90483  0.99838     O
C       0.2639   0.9661   0.4759     C
C        0.267   0.9388   0.9286     C
O      0.27867  0.91467  0.42017     O
H         0.28     0.99    0.775     H
H        0.288     0.08    0.571     H
H       0.3058   0.0986   0.0659     H
C       0.3269   0.0621   0.1739     C
C       0.3662   0.0864   0.0965     C
H        0.369    0.219    0.623     H
C         0.37    0.051   0.5438     C
N       0.3715   0.9625   0.7624     N
H       0.3871   0.0389   0.2704     H
H        0.388    0.996    0.715     H
C       0.3882   0.9802   0.4882     C
C       0.4111   0.9281   0.8905     C
C       0.4156   0.0496   0.2187     C
N       0.4462   0.1534   0.6096     N
C       0.4521   0.9473   0.8127     C
H       0.4672    0.097      0.6     H
C        0.479    0.061    0.558     C
H       0.4803   0.8897   0.9862     H
H        0.487    0.843    0.377     H
C        0.495   0.0922   0.0656     C
C        0.505   0.9078   0.9344     C
H        0.513    0.157    0.623     H
H       0.5197   0.1103   0.0138     H
C        0.521    0.913    0.446     C
H       0.5328    0.903      0.4     H
C       0.5479   0.0527   0.1873     C
N       0.5538   0.8466   0.3904     N
C       0.5844   0.9504   0.7813     C
C       0.5889   0.0719   0.1095     C
C       0.6118   0.0198   0.5118     C
H        0.612    0.004    0.285     H
H       0.6129   0.9611   0.7296     H
N       0.6285   0.0375   0.2376     N
C         0.63    0.949   0.4562     C
H        0.631    0.781    0.377     H
C       0.6338   0.9136   0.9035     C
C       0.6731   0.9379   0.8261     C
H       0.6942   0.9014   0.9341     H
H        0.712     0.92    0.429     H
H         0.72     0.01    0.225     H
O      0.72133  0.08533  0.57983     O
C        0.733   0.0612   0.0714     C
C       0.7361   0.0339   0.5241     C
O      0.75377  0.09517  0.00162     O
H        0.781    0.631    0.877     H
C       0.8085   0.9553   0.7915     C
O      0.82606  0.01666  0.11094     O
O      0.83809  0.98209  0.72214     O
H        0.843    0.487    0.877     H
N       0.8466   0.5538   0.8904     N
O      0.84956  0.99396  0.48069     O
O      0.88652  0.93972  0.83554     O
H       0.8897   0.4803   0.4862     H
H       0.9014   0.6942   0.4341     H
H        0.903   0.5328      0.9     H
O      0.90483  0.24623  0.49838     O
C       0.9078    0.505   0.4344     C
C        0.913    0.521    0.946     C
C       0.9136   0.6338   0.4035     C
O      0.91467  0.27867  0.92017     O
H         0.92    0.712    0.929     H
C       0.9281   0.4111   0.3905     C
Gd     0.93335  0.06499  0.89725    Gd
Gd     0.93501  0.06665  0.60275    Gd
C       0.9379   0.6731   0.3261     C
C       0.9388    0.267   0.4286     C
O      0.93972  0.88652  0.33554     O
C       0.9473   0.4521   0.3127     C
C        0.949     0.63   0.9562     C
C       0.9504   0.5844   0.2813     C
C       0.9553   0.8085   0.2915     C
H       0.9611   0.6129   0.2296     H
N       0.9625   0.3715   0.2624     N
C       0.9661   0.2639   0.9759     C
C       0.9802   0.3882   0.9882     C
O      0.98209  0.83809  0.22214     O
O      0.98334  0.17394  0.38906     O
H         0.99     0.28    0.275     H
O      0.99396  0.84956  0.98069     O
H        0.996    0.388    0.215     H
