data_I
_chemical_name_common  '/home/zhangsd/repos/MofS-CGCNN/ML/data/WS24/clean_cifs/SANHAT'
_cell_length_a 10.79617
_cell_length_b 10.79617
_cell_length_c 18.87020
_cell_angle_alpha 74.36334
_cell_angle_beta  74.36334
_cell_angle_gamma 63.73360
_space_group_name_H-M_alt      'P 1'


loop_
_space_group_symop_operation_xyz
  'x, y, z' 

loop_
_atom_site_label
_atom_site_fract_x
_atom_site_fract_y
_atom_site_fract_z
_atom_site_type_symbol
H        0.001    0.663    0.128     H
H        0.002   0.0708   0.0501     H
N       0.0056    0.863     0.36     N
C       0.0064    0.407   0.4341     C
C        0.012    0.116    0.085     C
N       0.0147   0.1213   0.6271     N
H       0.0154   0.0962   0.3696     H
H       0.0183   0.6109   0.5141     H
C       0.0214   0.4266   0.9438     C
H       0.0241   0.7677   0.2943     H
C       0.0285   0.0745   0.5743     C
H        0.034    0.394    0.901     H
H       0.0395   0.1919   0.0563     H
H       0.0431   0.2099   0.7481     H
C       0.0465   0.5541    0.688     C
H       0.0505   0.8817   0.4519     H
C        0.055   0.1562   0.6841     C
N       0.0564   0.3466     0.89     N
H        0.063    0.162   0.2356     H
C        0.064    0.918   0.5975     C
H       0.0662   0.2888   0.6168     H
H       0.0708    0.002   0.5501     H
C       0.0745   0.0285   0.0743     C
H       0.0756   0.0812   0.2237     H
H       0.0812   0.0756   0.7237     H
C        0.082    0.936   0.9025     C
C       0.0855   0.4493   0.2814     C
H       0.0864   0.8776    0.554     H
C       0.0877   0.5731   0.6098     C
H       0.0896    0.108   0.0406     H
H       0.0962   0.0154   0.8696     H
C       0.0995   0.1895   0.6366     C
H          0.1   0.8474   0.6615     H
H        0.108   0.0896   0.5406     H
C      0.11128  0.52008   0.0123     C
H        0.114    0.508   0.7855     H
H       0.1143   0.4603   0.2299     H
H       0.1152   0.7792   0.8323     H
C        0.116    0.012    0.585     C
H       0.1183   0.9495   0.0481     H
C       0.1204   0.8216   0.3819     C
N       0.1213   0.0147   0.1271     N
H       0.1224   0.9136    0.946     H
C        0.124   0.8256   0.8663     C
H       0.1244   0.2576   0.1299     H
H       0.1249   0.8571   0.8771     H
N       0.1277   0.5383   0.7378     N
C        0.128    0.162   0.7165     C
C       0.1303   0.4493   0.9563     C
C       0.1341   0.7777   0.3298     C
C       0.1345   0.4131   0.4036     C
H        0.139    0.293    0.874     H
H       0.1414   0.1856   0.1042     H
H       0.1425   0.8567   0.0862     H
H       0.1429   0.8751   0.6229     H
H       0.1433   0.8575   0.4138     H
H        0.145   0.7446   0.2869     H
H       0.1526   0.2808   0.6119     H
H       0.1526      0.9   0.8385     H
C       0.1562    0.055   0.1841     C
H        0.162    0.063   0.7356     H
C        0.162    0.128   0.2165     C
C      0.17389  0.43689   0.3261     C
C       0.1744    0.876   0.6337     C
C       0.1784   0.8796   0.1181     C
C        0.179   0.2002   0.6506     C
H       0.1856   0.1414   0.6042     H
C       0.1895   0.0995   0.1366     C
H       0.1919   0.0395   0.5563     H
H       0.1929   0.7595   0.8963     H
H       0.1946   0.4014   0.4343     H
H       0.1956   0.1976   0.2153     H
H       0.1976   0.1956   0.7153     H
C       0.2002    0.179   0.1506     C
H       0.2043   0.2229    0.689     H
H       0.2099   0.0431   0.2481     H
O       0.2144   0.7274   0.3521     O
H        0.215    0.525    0.724     H
H        0.218    0.416   0.9264     H
O      0.21817  0.58777  0.08088     O
H       0.2208   0.8848   0.6677     H
C       0.2223   0.8659   0.1702     C
H       0.2229   0.2043    0.189     H
C       0.2315   0.5635   0.5718     C
H       0.2323   0.9759   0.2057     H
C       0.2341   0.5355   0.0254     C
H       0.2405   0.8071   0.6037     H
O      0.25245  0.59625  0.50162     O
O       0.2554   0.7654    0.142     O
H       0.2554    0.855   0.2131     H
H       0.2576   0.1244   0.6299     H
H       0.2808   0.1526   0.1119     H
H       0.2888   0.0662   0.1168     H
H        0.293    0.139    0.374     H
C      0.30932  0.45392  0.29168     C
O      0.32394  0.51994  0.61152     O
H        0.337    0.999    0.372     H
O      0.33858  0.48158  0.22242     O
N       0.3466   0.0564     0.39     N
O       0.3493   0.4937  0.98315     O
O      0.38741  0.43781  0.33582     O
H       0.3891   0.9817   0.9859     H
H        0.394    0.034    0.401     H
H       0.4014   0.1946   0.9343     H
O      0.40375  0.74755  0.99838     O
C        0.407   0.0064   0.9341     C
O      0.41223  0.78183  0.41912     O
C       0.4131   0.1345   0.9036     C
H        0.416    0.218   0.4264     H
C       0.4266   0.0214   0.4438     C
C       0.4269   0.9123   0.8902     C
Eu     0.43347  0.56491  0.39758    Eu
Eu     0.43509  0.56653  0.10242    Eu
C       0.4365   0.7685   0.9282     C
C      0.43689  0.17389   0.8261     C
O      0.43781  0.38741  0.83582     O
C       0.4459   0.9535    0.812     C
C       0.4493   0.0855   0.7814     C
C       0.4493   0.1303   0.4563     C
C      0.45392  0.30932  0.79168     C
H       0.4603   0.1143   0.7299     H
N       0.4617   0.8723   0.7622     N
C       0.4645   0.7659   0.4746     C
H        0.475    0.785    0.776     H
C      0.47992  0.88872   0.4877     C
O      0.48006  0.67606  0.88848     O
O      0.48158  0.33858  0.72242     O
H        0.492    0.886   0.7145     H
O       0.4937   0.3493  0.48315     O
O       0.5063   0.6507  0.51685     O
H        0.508    0.114   0.2855     H
O      0.51842  0.66142  0.27758     O
O      0.51994  0.32394  0.11152     O
C      0.52008  0.11128   0.5123     C
H        0.525    0.215    0.224     H
C       0.5355   0.2341   0.5254     C
N       0.5383   0.1277   0.2378     N
H       0.5397   0.8857   0.2701     H
C      0.54608  0.69068  0.20832     C
C       0.5507   0.8697   0.5437     C
C       0.5507   0.9145   0.2186     C
C       0.5541   0.0465    0.188     C
O      0.56219  0.61259  0.16418     O
C      0.56311  0.82611   0.1739     C
C       0.5635   0.2315   0.0718     C
Eu     0.56491  0.43347  0.89758    Eu
Eu     0.56653  0.43509  0.60242    Eu
C       0.5731   0.0877   0.1098     C
C       0.5734   0.9786   0.5562     C
H        0.584    0.782   0.5736     H
C       0.5869   0.8655   0.0964     C
O      0.58777  0.21817  0.58088     O
C        0.593   0.9936   0.0659     C
O      0.59625  0.25245  0.00162     O
H       0.5986   0.8054   0.0657     H
H        0.606    0.966    0.599     H
H       0.6109   0.0183   0.0141     H
O      0.61259  0.56219  0.66418     O
O       0.6507   0.5063  0.01685     O
N       0.6534   0.9436     0.61     N
O      0.66142  0.51842  0.77758     O
H        0.663    0.001    0.628     H
O      0.67606  0.48006  0.38848     O
C      0.69068  0.54608  0.70832     C
H        0.707    0.861    0.626     H
H       0.7112   0.9338   0.8832     H
H       0.7192   0.8474   0.8881     H
O       0.7274   0.2144   0.8521     O
H       0.7424   0.8756   0.3701     H
H       0.7446    0.145   0.7869     H
O      0.74755  0.40375  0.49838     O
H       0.7595   0.1929   0.3963     H
O       0.7654   0.2554    0.642     O
C       0.7659   0.4645   0.9746     C
H       0.7677   0.0241   0.7943     H
C       0.7685   0.4365   0.4282     C
H       0.7771   0.7957    0.811     H
C       0.7777   0.1341   0.8298     C
H       0.7792   0.1152   0.3323     H
O      0.78183  0.41223  0.91912     O
H        0.782    0.584   0.0736     H
H        0.785    0.475    0.276     H
H       0.7901   0.9569   0.7519     H
H       0.7957   0.7771    0.311     H
C       0.7998    0.821   0.8494     C
H       0.8024   0.8044   0.2847     H
H       0.8044   0.8024   0.7847     H
H       0.8054   0.5986   0.5657     H
H       0.8071   0.2405   0.1037     H
H       0.8081   0.9605   0.4437     H
C       0.8105   0.9005   0.8634     C
H       0.8144   0.8586   0.3958     H
C        0.821   0.7998   0.3494     C
C       0.8216   0.1204   0.8819     C
C       0.8256    0.124   0.3663     C
C      0.82611  0.56311   0.6739     C
C        0.838    0.872   0.7835     C
H        0.838    0.937   0.2644     H
C       0.8438    0.945   0.8159     C
H       0.8474      0.1   0.1615     H
H       0.8474   0.7192   0.3881     H
H        0.855   0.2554   0.7131     H
H       0.8567   0.1425   0.5862     H
H       0.8571   0.1249   0.3771     H
H       0.8575   0.1433   0.9138     H
H       0.8586   0.8144   0.8958     H
H        0.861    0.707    0.126     H
N        0.863   0.0056     0.86     N
C       0.8655   0.5869   0.5964     C
C       0.8659   0.2223   0.6702     C
C       0.8697   0.5507   0.0437     C
C        0.872    0.838   0.2835     C
N       0.8723   0.4617   0.2622     N
H       0.8751   0.1429   0.1229     H
H       0.8756   0.7424   0.8701     H
C        0.876   0.1744   0.1337     C
H       0.8776   0.0864    0.054     H
C       0.8796   0.1784   0.6181     C
H       0.8817   0.0505   0.9519     H
C        0.884    0.988    0.415     C
H       0.8848   0.2208   0.1677     H
H       0.8857   0.5397   0.7701     H
H        0.886    0.492   0.2145     H
C      0.88872  0.47992   0.9877     C
H        0.892   0.9104   0.4594     H
H          0.9   0.1526   0.3385     H
C       0.9005   0.8105   0.3634     C
H       0.9038   0.9846   0.1304     H
H       0.9104    0.892   0.9594     H
C       0.9123   0.4269   0.3902     C
H       0.9136   0.1224    0.446     H
C       0.9145   0.5507   0.7186     C
C        0.918    0.064   0.0975     C
H       0.9188   0.9244   0.2763     H
H       0.9244   0.9188   0.7763     H
C       0.9255   0.9715   0.9257     C
H       0.9292    0.998   0.4499     H
H       0.9338   0.7112   0.3832     H
C        0.936    0.082   0.4025     C
H        0.937    0.838   0.7644     H
N       0.9436   0.6534     0.11     N
C        0.945   0.8438   0.3159     C
H       0.9495   0.1183   0.5481     H
C       0.9535   0.4459    0.312     C
H       0.9569   0.7901   0.2519     H
H       0.9605   0.8081   0.9437     H
H        0.966    0.606    0.099     H
C       0.9715   0.9255   0.4257     C
H       0.9759   0.2323   0.7057     H
C       0.9786   0.5734   0.0562     C
H       0.9817   0.3891   0.4859     H
H       0.9846   0.9038   0.6304     H
C        0.988    0.884    0.915     C
C       0.9936    0.593   0.5659     C
H        0.998   0.9292   0.9499     H
H        0.999    0.337    0.872     H
