data_I
_chemical_name_common  '/home/zhangsd/repos/MofS-CGCNN/ML/data/WS24/clean_cifs/SAXLIO'
_cell_length_a 11.37205
_cell_length_b 11.37205
_cell_length_c 30.13636
_cell_angle_alpha 100.86803
_cell_angle_beta  100.86803
_cell_angle_gamma 90.03919
_space_group_name_H-M_alt      'P 1'


loop_
_space_group_symop_operation_xyz
  'x, y, z' 

loop_
_atom_site_label
_atom_site_fract_x
_atom_site_fract_y
_atom_site_fract_z
_atom_site_type_symbol
H       0.0008   0.5196   0.2406     H
H       0.0011   0.8723   0.5274     H
H       0.0017   0.8303   0.6052     H
C       0.0024    0.268    0.549     C
C        0.004     0.19   0.0828     C
H       0.0047   0.7989   0.2668     H
H       0.0051   0.2343   0.5176     H
C      0.00542  0.74226  0.75928     C
N      0.00688  0.13782  0.87062     N
H       0.0072   0.0448   0.4482     H
C      0.01636  0.53056  0.88432     C
H       0.0241   0.3721   0.1056     H
H       0.0245   0.7073    0.193     H
C        0.031   0.7966    0.049     C
C      0.03203  0.53303  0.35486     C
H       0.0323   0.1551   0.3918     H
H       0.0333   0.7625   0.0176     H
H       0.0349   0.4539   0.3618     H
Ag    0.038599 0.013761  0.81083    Ag
H       0.0402   0.5684   0.1022     H
N      0.04057  0.66165  0.72688     N
C      0.04288  0.30628  0.91776     C
H       0.0437   0.5293    0.324     H
H       0.0476    0.523   0.8566     H
N      0.04836  0.33082  0.73234     N
C       0.0498   0.1154    0.063     C
H       0.0563   0.9229   0.4266     H
H       0.0572    0.667   0.4416     H
C      0.05791  0.66711  0.21842     C
H       0.0633   0.4505   0.9694     H
N      0.06369  0.18477  0.77312     N
N      0.06602  0.84848  0.76766     N
H       0.0691   0.4745   0.5386     H
C      0.07078  0.61978  0.08476     C
C      0.07197  0.31017  0.09254     C
H       0.0771   0.9437   0.5734     H
C       0.0782   0.0026   0.4434     C
C      0.07973  0.76193  0.26266     C
H       0.0836    0.059   0.3566     H
H       0.0893   0.3271   0.0644     H
N      0.08959  0.23203  0.88654     N
H       0.0903   0.5723   0.0574     H
C      0.09388  0.51468  0.91496     C
H       0.0949   0.1477    0.044     H
C      0.10089  0.42229  0.94318     C
H       0.1028   0.0772   0.0844     H
C      0.10376  0.11796  0.38432     C
H       0.1078   0.7236   0.2886     H
H       0.1093   0.1969   0.2456     H
H       0.1098   0.8266    0.065     H
H       0.1099   0.5391   0.4394     H
H       0.1114   0.3848    0.602     H
C      0.12326  0.61886  0.43472     C
C      0.12513  0.33573  0.57306     C
H       0.1256   0.6964   0.3828     H
H       0.1277   0.9989   0.4726     H
N      0.13184  0.72068  0.71372     N
C      0.13311  0.61491  0.38902     C
C       0.1383   0.4245   0.5406     C
H       0.1388   0.0234     0.95     H
H       0.1391   0.3791     0.51     H
H       0.1414   0.6628    0.103     H
C      0.14386  0.83106  0.73832     C
H       0.1457   0.3073    0.114     H
H       0.1465   0.4751   0.8948     H
C      0.15028  0.07108  0.41496     C
N      0.15152  0.93398  0.23234     N
H       0.1534   0.5472   0.1812     H
H       0.1534    0.691   0.9482     H
C      0.15554  0.34274  0.76168     C
H       0.1581   0.1777     0.38     H
Ag    0.162382 0.644696 0.645092    Ag
H       0.1649   0.3217    0.273     H
N      0.16812  0.25696  0.78628     N
C      0.16894  0.85614  0.26168     C
H       0.1697   0.9983   0.3948     H
C      0.17226  0.61046  0.20772     C
H       0.1734   0.8902    0.935     H
C       0.1779   0.2373   0.2664     C
H       0.1846     0.41    0.955     H
H       0.1901   0.2067   0.2944     H
H       0.1902   0.2116    0.603     H
C       0.1908   0.6152   0.9434     C
H        0.196   0.6532   0.4548     H
H       0.2011   0.9953   0.7332     H
C       0.2034    0.969    0.951     C
H       0.2122   0.5784   0.2336     H
C      0.21498  0.26398  0.58476     C
H       0.2179   0.5121   0.7668     H
H       0.2237   0.5949   0.9726     H
H       0.2238     0.67   0.2016     H
H       0.2285   0.0887    0.189     H
H       0.2351   0.2171   0.5574     H
H       0.2357   0.4185    0.693     H
H       0.2375   0.9667   0.9824     H
C      0.23807  0.92027  0.73734     C
H       0.2388    0.367   0.2244     H
C      0.24973  0.50373  0.55646     C
C      0.25015  0.56515   0.3755     C
H       0.2505   0.4797   0.3752     H
C      0.25073  0.43293  0.76266     C
H       0.2526   0.5768   0.3446     H
H       0.2537   0.6203   0.9266     H
C      0.25774  0.99458  0.24072     C
H       0.2594   0.0328    0.898     H
Ag     0.26729 0.249604 0.854908    Ag
H       0.2689   0.1561   0.4694     H
N      0.26911  0.59435  0.59334     N
C      0.27089  0.09229  0.44318     C
C      0.27112  0.21932  0.24784     C
H       0.2764   0.8922   0.7114     H
N      0.27932  0.86816  0.28628     N
H       0.2805   0.1859   0.9614     H
H       0.2816   0.2278   0.7016     H
C      0.28324  0.09584  0.21828     C
H       0.2838    0.312   0.6022     H
H       0.2927   0.9755    0.807     H
H        0.295   0.0204    0.455     H
C      0.30131  0.41051  0.71842     C
C      0.30207  0.01267  0.92694     C
C       0.3029   0.3125    0.227     C
H       0.3036   0.8744   0.6172     H
H        0.309   0.8466   0.0518     H
H        0.315   0.4308   0.7886     H
H       0.3178   0.2796    0.197     H
H         0.33   0.7762   0.7984     H
C      0.33289  0.94209  0.78158     C
H        0.333   0.9428   0.5584     H
H       0.3366   0.2226   0.2744     H
H       0.3372   0.8586    0.897     H
N      0.33835  0.95943  0.27312     N
N      0.34076  0.49486  0.53472     N
H       0.3468    0.804   0.5452     H
C      0.34726  0.28546  0.70772     C
H       0.3476   0.4576    0.142     H
C       0.3477   0.1339   0.9594     C
Ag    0.355304 0.837618 0.354908    Ag
C      0.35897  0.62357  0.40754     C
C      0.36148  0.12488  0.41776     C
H        0.364     0.09   0.2122     H
H       0.3656   0.4754   0.0584     H
H       0.3728   0.5832   0.7306     H
H       0.3741   0.3545   0.2456     H
C      0.37643  0.64103  0.59246     C
Ag    0.377945 0.396273 0.469872    Ag
H       0.3791   0.1191     0.99     H
H       0.3797   0.7463   0.0734     H
C      0.38022  0.92922  0.91524     C
C      0.38114  0.87674  0.56528     C
H        0.384   0.2778   0.6812     H
C       0.3848   0.8092   0.0566     C
C      0.38509  0.86689  0.61098     C
C      0.38954  0.82774  0.79228     C
H       0.3905   0.0133   0.1082     H
H       0.3922   0.1026   0.7694     H
C      0.39958  0.50478  0.71996     C
N      0.40451  0.04695  0.38654     N
H       0.4051   0.7763   0.0274     H
H       0.4052   0.2714   0.7336     H
N      0.40565  0.73089  0.40666     N
N      0.40817  0.23797  0.42246     N
N      0.41647  0.57625  0.44226     N
H       0.4165   0.5001   0.6896     H
H       0.4168   0.6272   0.2694     H
H       0.4205   0.3497   0.0606     H
H       0.4216   0.7878   0.7664     H
H       0.4231   0.3421   0.1382     H
H       0.4232   0.7474   0.6554     H
N      0.42375  0.58353  0.55774     N
N      0.42577  0.25101  0.90666     N
C      0.42717  0.42817  0.14514     C
H       0.4277   0.9097   0.9426     H
C      0.42962  0.03482  0.78004     C
H       0.4316   0.9598   0.8978     H
H       0.4344   0.0444    0.642     H
C      0.43485  0.74985   0.6245     C
H       0.4364   0.5072   0.8828     H
C      0.43854  0.43414  0.06528     C
C      0.44327  0.19727  0.94354     C
H       0.4528   0.8466   0.8188     H
H       0.4609   0.8901   0.5606     H
C      0.46697  0.96797  0.64514     C
C      0.46944  0.98364  0.11568     C
H       0.4697   0.4553    0.176     H
H       0.4707   0.9563    0.676     H
H        0.471   0.4898   0.7406     H
H       0.4769   0.0605   0.8104     H
H        0.477   0.9524   0.1434     H
H       0.4804   0.9992   0.7594     H
N       0.4828  0.11374  0.37062     N
H       0.4835   0.3315   0.6056     H
C      0.48386  0.22526  0.39212     C
C      0.48532  0.90612  0.08504     C
H       0.4873   0.2251   0.5644     H
H       0.4879   0.7821   0.2332     H
H       0.4912   0.4484   0.0452     H
H       0.4928   0.5636   0.1172     H
C      0.49409  0.47589  0.11098     C
C      0.49522  0.60042  0.28004     C
C      0.49627  0.75027  0.44354     C
H       0.4999   0.5835   0.3104     H
N      0.50514  0.65924  0.46528     N
H       0.5098   0.3948   0.3846     H
H       0.5102    0.529   0.2594     H
H       0.5178    0.342   0.8446     H
H       0.5203   0.7495   0.6248     H
C      0.52411  0.50591  0.88902     C
H       0.5246   0.6344   0.9416     H
H       0.5249   0.8535   0.1052     H
H       0.5255   0.9309   0.4614     H
H       0.5281   0.0477     0.12     H
C      0.53237  0.27057  0.59254     C
C      0.53397  0.29857  0.90754     C
H       0.5424   0.6524    0.858     H
H       0.5447   0.5303    0.824     H
H       0.5461   0.9651   0.6382     H
Ag    0.547069 0.022231  0.31083    Ag
H       0.5495   0.9367   0.0306     H
H       0.5516   0.5088   0.9548     H
N      0.55604  0.21014  0.96528     N
H       0.5567   0.2183    0.614     H
C      0.55792  0.32432  0.38424     C
C      0.56035  0.37535   0.8755     C
C      0.56586  0.56146  0.93472     C
C      0.56707  0.74927  0.23734     C
H       0.5692    0.685   0.2114     H
C      0.57183  0.57283  0.85486     C
C       0.5755   0.8617   0.4594     C
H       0.5761   0.3021   0.3536     H
C      0.57771  0.89911  0.05682     C
H       0.5815   0.7643    0.307     H
C      0.58949  0.69869  0.28158     C
H         0.59   0.8154    0.045     H
H       0.6022   0.3634   0.5568     H
Ag    0.603727 0.622055 0.530128    Ag
H       0.6052   0.4902   0.6154     H
H       0.6074   0.2356   0.7244     H
H       0.6137   0.2013   0.2544     H
H       0.6152   0.8886    0.398     H
N      0.61601  0.27579  0.94226     N
H       0.6209   0.8609     0.49     H
C      0.62465  0.43965   0.1245     C
H       0.6253   0.3545   0.1248     H
H       0.6279   0.9759   0.8944     H
H        0.633   0.7612   0.7756     H
H       0.6366   0.3978   0.4432     H
H       0.6411   0.1215   0.7456     H
H       0.6419   0.2987    0.227     H
C       0.6428   0.3288   0.5828     C
H       0.6455   0.3747   0.8752     H
H       0.6455   0.6259   0.7544     H
H       0.6457   0.1623   0.2056     H
H       0.6463   0.1991    0.544     H
H       0.6503   0.5795   0.9394     H
C      0.65726  0.84446  0.23832     C
H       0.6579   0.5769   0.8618     H
H        0.658   0.4822   0.1554     H
Ag    0.658073 0.176401 0.030128    Ag
C       0.6615   0.2209   0.2336     C
C      0.66427  0.87487  0.42694     C
C       0.6645   0.1741    0.727     C
H       0.6674   0.1292    0.697     H
H       0.6685   0.5165   0.3944     H
N      0.66918  0.95164  0.26766     N
C       0.6712   0.3572   0.4172     C
H       0.6729   0.9107   0.9356     H
C      0.67568  0.44208  0.61576     C
H       0.6766   0.0612     0.45     H
H       0.6783   0.8351    0.727     H
C       0.6875   0.6971    0.773     C
H        0.688   0.7162   0.3978     H
C      0.68983  0.92803  0.90746     C
H       0.6927   0.8543    0.886     H
C      0.69372  0.95712  0.08224     C
H       0.6965   0.2635   0.4558     H
C       0.6976   0.2632    0.563     C
H       0.6979   0.4239   0.6464     H
H       0.7013   0.3581    0.773     H
C      0.70143  0.46603  0.09246     C
C      0.71454  0.65274  0.29228     C
H       0.7204   0.6822    0.803     H
H       0.7222    0.616   0.3188     H
N      0.72421  0.38399  0.05774     N
H       0.7286   0.5948   0.2664     H
C      0.72943  0.46763  0.40746     C
C        0.732   0.9976    0.451     C
N      0.73571  0.06551  0.07754     N
C      0.73602  0.78502  0.41524     C
H       0.7365   0.3035   0.5442     H
C       0.7368   0.3024    0.437     C
H       0.7398   0.1248   0.8846     H
N      0.74304  0.83188  0.21372     N
N      0.74899  0.57423  0.09334     N
Ag    0.750396  0.73271 0.145092    Ag
H       0.7572   0.2316   0.5844     H
N      0.76203  0.59183  0.57754     N
C       0.7627   0.8221   0.7336     C
H       0.7644   0.3926   0.2756     H
H       0.7657   0.9949   0.4824     H
C      0.76702  0.00386  0.25928     C
N      0.76797  0.91041  0.11346     N
H       0.7684   0.2428   0.4156     H
H       0.7722   0.7184   0.2984     H
C      0.77328  0.22148  0.25216     C
C      0.77474  0.51614  0.60788     C
H       0.7749   0.5127   0.4356     H
H       0.7774   0.6634   0.7256     H
C      0.77852  0.22672  0.74784     C
C       0.7791   0.3385   0.7664     C
C      0.78068  0.72888  0.75216     C
H       0.7817   0.4433    0.386     H
H       0.7829   0.7649   0.4426     H
H       0.7884   0.8098    0.397     H
H       0.7895   0.1497    0.311     H
N      0.78986  0.44396  0.03472     N
H       0.7933   0.8099   0.7056     H
H       0.7948   0.0116    0.435     H
H       0.7954   0.0566   0.9432     H
H       0.7987   0.3863   0.7456     H
H       0.8009   0.3537    0.456     H
H       0.8015   0.0275   0.8536     H
H       0.8018   0.1878   0.7744     H
C      0.80273  0.55673  0.05646     C
H       0.8031   0.8907   0.7544     H
C      0.80992  0.07632  0.88424     C
C         0.81    0.996   0.9172     C
H       0.8122   0.1982   0.2256     H
H       0.8141   0.7195   0.0386     H
C      0.81496  0.12756  0.28172     C
N      0.81523  0.93631  0.22688     N
H       0.8223   0.8419     0.62     H
Ag    0.823599 0.341927 0.969872    Ag
C       0.8259   0.3355    0.273     C
H       0.8377   0.3543   0.7944     H
C      0.84174  0.08314  0.10788     C
H       0.8439   0.7311   0.5306     H
H       0.8449   0.9677   0.6082     H
H       0.8503   0.2105    0.689     H
H       0.8523   0.9051    0.956     H
N      0.86218  0.99312  0.12938     N
C       0.8661   0.6523   0.0406     C
H       0.8708   0.3326    0.303     H
H       0.8722   0.0982   0.7122     H
C      0.87244  0.18504  0.71828     C
C      0.87512  0.63852  0.58224     C
H       0.8752   0.2602   0.1154     H
H       0.8785   0.3589   0.2544     H
H       0.8809   0.6209     0.01     H
C      0.88204  0.89624  0.61568     C
C       0.8846   0.9502    0.937     C
N      0.88626   0.5172  0.62938     N
H       0.8974   0.6078   0.2306     H
H       0.9018   0.1278   0.2878     H
C      0.90416  0.71676  0.78172     C
C      0.90771  0.72911  0.55682     C
H         0.91    0.636   0.7878     H
H       0.9113   0.7715    0.811     H
C      0.91686  0.15826  0.89212     C
H       0.9228   0.8972   0.9156     H
C      0.92368  0.19008  0.11576     C
C      0.92892  0.84972  0.58504     C
N      0.93449  0.26429  0.92246     N
H       0.9388   0.3234     0.55     H
H       0.9395   0.5231   0.1896     H
H        0.941   0.9164   0.6434     H
H       0.9423   0.0093   0.9558     H
H       0.9434   0.2046   0.0568     H
H       0.9523   0.4719     0.88     H
N      0.95305  0.59549  0.61346     N
H       0.9552   0.9928   0.5518     H
H       0.9556   0.5656    0.358     H
C      0.96518  0.57038  0.21996     C
H       0.9672   0.7406    0.102     H
H       0.9725   0.1985   0.1464     H
H       0.9766   0.8612     0.05     H
Ag    0.977769 0.452931  0.68917    Ag
H       0.9796    0.705    0.545     H
Ag    0.986239 0.961401  0.18917    Ag
H       0.9867   0.6095   0.8918     H
C      0.98733  0.69793  0.07306     C
H       0.9884   0.2052    0.565     H
H       0.9907   0.0577   0.0442     H
C      0.99614  0.23298  0.74072     C
C       0.9974   0.9218   0.5566     C
