data_I
_chemical_name_common  '/home/zhangsd/repos/MofS-CGCNN/ML/data/WS24/clean_cifs/SAXLOU'
_cell_length_a 14.25342
_cell_length_b 14.25342
_cell_length_c 19.95400
_cell_angle_alpha 90.00000
_cell_angle_beta  90.00000
_cell_angle_gamma 97.34416
_space_group_name_H-M_alt      'P 1'


loop_
_space_group_symop_operation_xyz
  'x, y, z' 

loop_
_atom_site_label
_atom_site_fract_x
_atom_site_fract_y
_atom_site_fract_z
_atom_site_type_symbol
Ag    0.002279 0.848427 0.943568    Ag
C      0.00254  0.00254  0.79203     C
H       0.0034   0.0638   0.2934     H
H       0.0076   0.8722    0.273     H
H       0.0081   0.7269   0.4094     H
H       0.0105   0.2801   0.2412     H
H       0.0186   0.3824   0.6658     H
N      0.02362  0.02362  0.91194     N
H       0.0261   0.0725   0.7087     H
C       0.0279   0.9559  0.26643     C
H       0.0315   0.3901   0.2497     H
H       0.0357   0.2915   0.8882     H
H       0.0374    0.547   0.9667     H
H       0.0421   0.3167   0.9647     H
C       0.0441   0.9721  0.73357     C
H       0.0446   0.0446   0.1874     H
H        0.047   0.5374   0.5333     H
H        0.049   0.8132   0.1693     H
C      0.05009  0.05009  0.85064     C
H       0.0524   0.2944   0.7014     H
C      0.05314  0.90626  0.24278     C
H       0.0533   0.6131   0.6251     H
H       0.0575   0.3373   0.1405     H
C      0.05752   0.2877  0.60235     C
C      0.05918   0.3332  0.24138     C
H       0.0592   0.3972   0.9108     H
H       0.0604   0.7078   0.5835     H
H       0.0634   0.8958   0.7295     H
H       0.0638   0.0034   0.2934     H
H       0.0649   0.6319   0.4924     H
C      0.06547  0.33865  0.66463     C
C       0.0678    0.333   0.9211     C
H       0.0725   0.0261   0.7087     H
N      0.08049  0.08049  0.95375     N
H       0.0833   0.6507   0.9818     H
H       0.0852     0.23   0.6071     H
C      0.08774  0.59606  0.52823     C
C      0.08852   0.6501  0.59042     C
H       0.0901   0.3259   0.5678     H
H       0.0918   0.9332   0.7454     H
C       0.0924    0.836   0.2042     C
C      0.09606  0.58774  0.97177     C
H       0.1028   0.4408   0.4108     H
H       0.1034   0.7844   0.2328     H
H       0.1042   0.9366   0.2705     H
H       0.1043   0.3249   0.2759     H
C      0.10891  0.34045  0.17338     C
H       0.1099   0.4685   0.7497     H
H       0.1131   0.5533   0.8749     H
H        0.116   0.7078   0.8683     H
H       0.1176   0.4814   0.1658     H
N      0.12067  0.12067  0.85067     N
N      0.12691  0.19165   0.1148     N
H       0.1276    0.303   0.4496     H
H       0.1278   0.9924    0.727     H
H       0.1319   0.5649   0.0076     H
C      0.13761  0.13761  0.91513     C
N      0.13791  0.81611  0.97447     N
H       0.1473   0.2337   0.4425     H
C       0.1501  0.58852  0.90958     C
H       0.1507   0.5833   0.5182     H
H       0.1511   0.8633   0.1846     H
Ag    0.151573 0.997721 0.056432    Ag
C      0.15698  0.25778  0.15888     C
C      0.15955  0.39109  0.67338     C
C      0.16135  0.43453  0.16463     C
H       0.1627   0.4425   0.6405     H
H        0.163   0.3116   0.3755     H
C      0.16484   0.3239   0.9206     C
C       0.1668  0.44082  0.74138     C
C        0.167   0.4322   0.4211     C
C      0.17238  0.68932  0.89022     C
H       0.1724   0.2296  0.98875     H
H       0.1741   0.4099   0.0678     H
H       0.1751   0.3957   0.7759     H
C       0.1761  0.33516   0.4206     C
C      0.18258  0.74358   0.9642     C
H       0.1833   0.4579   0.4647     H
N      0.18389  0.86209  0.02553     N
H       0.1839   0.2703    0.954     H
H       0.1866   0.8132   0.3549     H
H       0.1868   0.8134   0.6451     H
Ag    0.188251 0.188251 0.767731    Ag
H       0.1884    0.337   0.8755     H
C      0.18932  0.67238  0.60978     C
N      0.19165  0.12691   0.1148     N
C        0.192   0.2316  0.94165     C
H        0.193   0.7424   0.7045     H
H        0.197   0.3724   0.9496     H
H        0.199   0.2854    0.381     H
H       0.2056   0.4476   0.2014     H
C       0.2069   0.2635  0.42583     C
H       0.2078   0.5604   0.9165     H
H       0.2078    0.616   0.6317     H
H       0.2085   0.4643   0.3882     H
C       0.2123  0.44248  0.10235     C
H       0.2146    0.301    0.881     H
C      0.21576  0.76004  0.66037     C
H       0.2168   0.7236   0.1616     H
H       0.2199   0.4895   0.7412     H
H       0.2236   0.7168   0.3384     H
H       0.2269   0.5081   0.0906     H
H       0.2296   0.1724  0.98875     H
H       0.2297   0.3161    0.454     H
H         0.23   0.0852   0.6071     H
C       0.2316    0.192  0.94165     C
H       0.2337   0.1473   0.4425     H
C       0.2365   0.2931  0.92583     C
C      0.23996  0.78424  0.33963     C
N      0.24061  0.24061  0.18795     N
C      0.24222  0.34302  0.65888     C
H       0.2424    0.693   0.7955     H
N      0.24312  0.75688      0.5     N
C      0.24358  0.68258   0.5358     C
C      0.25642  0.81742   0.0358     C
N      0.25688  0.74312      1.0     N
H       0.2576    0.807   0.2955     H
C      0.25778  0.15698  0.15888     C
N      0.25939  0.25939  0.68795     N
C      0.26004  0.71576  0.83963     C
C       0.2635   0.2069  0.42583     C
H       0.2663   0.3527   0.9425     H
C       0.2684    0.308  0.44165     C
H         0.27   0.4148   0.1071     H
H       0.2703   0.1839    0.954     H
H       0.2704   0.3276  0.48875     H
H       0.2731   0.9919   0.5906     H
H       0.2764   0.7832   0.8384     H
H       0.2801   0.0105   0.2412     H
H       0.2832   0.7764   0.6616     H
C      0.28424  0.73996  0.16037     C
H       0.2844   0.6034   0.2672     H
H       0.2854    0.199    0.381     H
C       0.2877  0.05752  0.60235     C
H       0.2915   0.0357   0.8882     H
H       0.2922    0.884   0.1317     H
H       0.2922   0.9396   0.4165     H
C       0.2931   0.2365  0.92583     C
H       0.2944   0.0524   0.7014     H
H        0.301   0.2146    0.881     H
H        0.303   0.1276   0.4496     H
H        0.307   0.7576   0.2045     H
C        0.308   0.2684  0.44165     C
N      0.30835  0.37309   0.6148     N
C      0.31068  0.82762  0.10978     C
H       0.3116    0.163   0.3755     H
Ag    0.311749 0.311749 0.267731    Ag
H       0.3132    0.549   0.3307     H
H       0.3132   0.6866   0.1451     H
H       0.3134   0.6868   0.8549     H
H       0.3161   0.2297    0.454     H
N      0.31611  0.63791  0.52553     N
H       0.3167   0.0421   0.9647     H
C      0.31742  0.75642   0.4642     C
C       0.3239  0.16484   0.9206     C
H       0.3249   0.1043   0.2759     H
H       0.3259   0.0901   0.5678     H
H       0.3276   0.2704  0.48875     H
C      0.32762  0.81068  0.39022     C
C        0.333   0.0678   0.9211     C
C       0.3332  0.05918  0.24138     C
C      0.33516   0.1761   0.4206     C
C        0.336   0.5924   0.2958     C
H        0.337   0.1884   0.8755     H
H       0.3373   0.0575   0.1405     H
C      0.33865  0.06547  0.66463     C
C      0.34045  0.10891  0.17338     C
C      0.34302  0.24222  0.65888     C
Ag    0.348427 0.502279 0.556432    Ag
H       0.3493   0.9167   0.0182     H
C       0.3499  0.91148  0.40958     C
H       0.3527   0.2663   0.9425     H
N      0.36209  0.68389  0.47447     N
C      0.36239  0.36239  0.41513     C
H       0.3633   0.6511   0.3154     H
H       0.3681   0.9351   0.5076     H
H       0.3722   0.5076    0.227     H
H       0.3724    0.197   0.9496     H
N      0.37309  0.30835   0.6148     N
N      0.37933  0.37933  0.35067     N
H       0.3824   0.0186   0.6658     H
H        0.384   0.7922   0.3683     H
H       0.3869   0.9467   0.3749     H
H       0.3901   0.0315   0.2497     H
C      0.39109  0.15955  0.67338     C
H       0.3957   0.1751   0.7759     H
H       0.3958   0.5634   0.7705     H
H       0.3972   0.0592   0.9108     H
C      0.40394  0.91226  0.47177     C
C      0.40626  0.55314  0.25722     C
H       0.4099   0.1741   0.0678     H
C      0.41148   0.8499  0.09042     C
C      0.41226  0.90394  0.02823     C
H       0.4148     0.27   0.1071     H
H       0.4167   0.8493   0.4818     H
N      0.41951  0.41951  0.45375     N
H       0.4275   0.4739   0.2087     H
C       0.4322    0.167   0.4211     C
H       0.4332   0.5918   0.7546     H
C      0.43453  0.16135  0.16463     C
H       0.4351   0.8681   0.9924     H
H       0.4362   0.4966   0.7934     H
H       0.4366   0.6042   0.2295     H
H       0.4396   0.7922   0.0835     H
H       0.4408   0.1028   0.4108     H
C      0.44082   0.1668  0.74138     C
C      0.44248   0.2123  0.10235     C
H       0.4425   0.1627   0.6405     H
H       0.4467   0.8869   0.1251     H
H       0.4476   0.2056   0.2014     H
C      0.44991  0.44991  0.35064     C
H        0.453   0.9626   0.0333     H
H       0.4554   0.4554   0.6874     H
C       0.4559   0.5279  0.23357     C
H       0.4579   0.1833   0.4647     H
H       0.4626    0.953   0.4667     H
H       0.4643   0.2085   0.3882     H
H       0.4685   0.1099   0.7497     H
C       0.4721   0.5441  0.76643     C
H       0.4739   0.4275   0.2087     H
N      0.47638  0.47638  0.41194     N
H       0.4814   0.1176   0.1658     H
H       0.4895   0.2199   0.7412     H
H       0.4919   0.7731   0.9094     H
H       0.4924   0.6278    0.773     H
H       0.4966   0.4362   0.7934     H
C      0.49746  0.49746  0.29203     C
Ag    0.497721 0.651573 0.443568    Ag
Ag    0.502279 0.348427 0.556432    Ag
C      0.50254  0.50254  0.70797     C
H       0.5034   0.5638   0.2066     H
H       0.5076   0.3722    0.227     H
H       0.5081   0.2269   0.0906     H
H       0.5105   0.7801   0.2588     H
H       0.5186   0.8824   0.8342     H
N      0.52362  0.52362  0.58806     N
H       0.5261   0.5725   0.7913     H
C       0.5279   0.4559  0.23357     C
H       0.5315   0.8901   0.2503     H
H       0.5357   0.7915   0.6118     H
H       0.5374    0.047   0.5333     H
H       0.5421   0.8167   0.5353     H
C       0.5441   0.4721  0.76643     C
H       0.5446   0.5446   0.3126     H
H        0.547   0.0374   0.9667     H
H        0.549   0.3132   0.3307     H
C      0.55009  0.55009  0.64936     C
H       0.5524   0.7944   0.7986     H
C      0.55314  0.40626  0.25722     C
H       0.5533   0.1131   0.8749     H
H       0.5575   0.8373   0.3595     H
C      0.55752   0.7877  0.89765     C
C      0.55918   0.8332  0.25862     C
H       0.5592   0.8972   0.5892     H
H       0.5604   0.2078   0.9165     H
H       0.5634   0.3958   0.7705     H
H       0.5638   0.5034   0.2066     H
H       0.5649   0.1319   0.0076     H
C      0.56547  0.83865  0.83537     C
C       0.5678    0.833   0.5789     C
H       0.5725   0.5261   0.7913     H
N      0.58049  0.58049  0.54625     N
H       0.5833   0.1507   0.5182     H
H       0.5852     0.73   0.8929     H
C      0.58774  0.09606  0.97177     C
C      0.58852   0.1501  0.90958     C
H       0.5901   0.8259   0.9322     H
H       0.5918   0.4332   0.7546     H
C       0.5924    0.336   0.2958     C
C      0.59606  0.08774  0.52823     C
H       0.6028   0.9408   0.0892     H
H       0.6034   0.2844   0.2672     H
H       0.6042   0.4366   0.2295     H
H       0.6043   0.8249   0.2241     H
C      0.60891  0.84045  0.32662     C
H       0.6099   0.9685   0.7503     H
H       0.6131   0.0533   0.6251     H
H        0.616   0.2078   0.6317     H
H       0.6176   0.9814   0.3342     H
N      0.62067  0.62067  0.64933     N
N      0.62691  0.69165   0.3852     N
H       0.6276    0.803   0.0504     H
H       0.6278   0.4924    0.773     H
H       0.6319   0.0649   0.4924     H
C      0.63761  0.63761  0.58487     C
N      0.63791  0.31611  0.52553     N
H       0.6473   0.7337   0.0575     H
C       0.6501  0.08852  0.59042     C
H       0.6507   0.0833   0.9818     H
H       0.6511   0.3633   0.3154     H
Ag    0.651573 0.497721 0.443568    Ag
C      0.65698  0.75778  0.34112     C
C      0.65955  0.89109  0.82662     C
C      0.66135  0.93453  0.33537     C
H       0.6627   0.9425   0.8595     H
H        0.663   0.8116   0.1245     H
C      0.66484   0.8239   0.5794     C
C       0.6668  0.94082  0.75862     C
C        0.667   0.9322   0.0789     C
C      0.67238  0.18932  0.60978     C
H       0.6724   0.7296  0.51125     H
H       0.6741   0.9099   0.4322     H
H       0.6751   0.8957   0.7241     H
C       0.6761  0.83516   0.0794     C
C      0.68258  0.24358   0.5358     C
H       0.6833   0.9579   0.0353     H
N      0.68389  0.36209  0.47447     N
H       0.6839   0.7703    0.546     H
H       0.6866   0.3132   0.1451     H
H       0.6868   0.3134   0.8549     H
Ag    0.688251 0.688251 0.732269    Ag
H       0.6884    0.837   0.6245     H
C      0.68932  0.17238  0.89022     C
N      0.69165  0.62691   0.3852     N
C        0.692   0.7316  0.55835     C
H        0.693   0.2424   0.7955     H
H        0.697   0.8724   0.5504     H
H        0.699   0.7854    0.119     H
H       0.7056   0.9476   0.2986     H
C       0.7069   0.7635  0.07417     C
H       0.7078   0.0604   0.5835     H
H       0.7078    0.116   0.8683     H
H       0.7085   0.9643   0.1118     H
C       0.7123  0.94248  0.39765     C
H       0.7146    0.801    0.619     H
C      0.71576  0.26004  0.83963     C
H       0.7168   0.2236   0.3384     H
H       0.7199   0.9895   0.7588     H
H       0.7236   0.2168   0.1616     H
H       0.7269   0.0081   0.4094     H
H       0.7296   0.6724  0.51125     H
H       0.7297   0.8161    0.046     H
H         0.73   0.5852   0.8929     H
C       0.7316    0.692  0.55835     C
H       0.7337   0.6473   0.0575     H
C       0.7365   0.7931  0.57417     C
C      0.73996  0.28424  0.16037     C
N      0.74061  0.74061  0.31205     N
C      0.74222  0.84302  0.84112     C
H       0.7424    0.193   0.7045     H
N      0.74312  0.25688      1.0     N
C      0.74358  0.18258   0.9642     C
C      0.75642  0.31742   0.4642     C
N      0.75688  0.24312      0.5     N
H       0.7576    0.307   0.2045     H
C      0.75778  0.65698  0.34112     C
N      0.75939  0.75939  0.81205     N
C      0.76004  0.21576  0.66037     C
C       0.7635   0.7069  0.07417     C
H       0.7663   0.8527   0.5575     H
C       0.7684    0.808  0.05835     C
H         0.77   0.9148   0.3929     H
H       0.7703   0.6839    0.546     H
H       0.7704   0.8276  0.01125     H
H       0.7731   0.4919   0.9094     H
H       0.7764   0.2832   0.6616     H
H       0.7801   0.5105   0.2588     H
H       0.7832   0.2764   0.8384     H
C      0.78424  0.23996  0.33963     C
H       0.7844   0.1034   0.2328     H
H       0.7854    0.699    0.119     H
C       0.7877  0.55752  0.89765     C
H       0.7915   0.5357   0.6118     H
H       0.7922    0.384   0.3683     H
H       0.7922   0.4396   0.0835     H
C       0.7931   0.7365  0.57417     C
H       0.7944   0.5524   0.7986     H
H        0.801   0.7146    0.619     H
H        0.803   0.6276   0.0504     H
H        0.807   0.2576   0.2955     H
C        0.808   0.7684  0.05835     C
N      0.80835  0.87309   0.8852     N
C      0.81068  0.32762  0.39022     C
H       0.8116    0.663   0.1245     H
Ag    0.811749 0.811749 0.232269    Ag
H       0.8132    0.049   0.1693     H
H       0.8132   0.1866   0.3549     H
H       0.8134   0.1868   0.6451     H
H       0.8161   0.7297    0.046     H
N      0.81611  0.13791  0.97447     N
H       0.8167   0.5421   0.5353     H
C      0.81742  0.25642   0.0358     C
C       0.8239  0.66484   0.5794     C
H       0.8249   0.6043   0.2241     H
H       0.8259   0.5901   0.9322     H
H       0.8276   0.7704  0.01125     H
C      0.82762  0.31068  0.10978     C
C        0.833   0.5678   0.5789     C
C       0.8332  0.55918  0.25862     C
C      0.83516   0.6761   0.0794     C
C        0.836   0.0924   0.2042     C
H        0.837   0.6884   0.6245     H
H       0.8373   0.5575   0.3595     H
C      0.83865  0.56547  0.83537     C
C      0.84045  0.60891  0.32662     C
C      0.84302  0.74222  0.84112     C
Ag    0.848427 0.002279 0.943568    Ag
H       0.8493   0.4167   0.4818     H
C       0.8499  0.41148  0.09042     C
H       0.8527   0.7663   0.5575     H
N      0.86209  0.18389  0.02553     N
C      0.86239  0.86239  0.08487     C
H       0.8633   0.1511   0.1846     H
H       0.8681   0.4351   0.9924     H
H       0.8722   0.0076    0.273     H
H       0.8724    0.697   0.5504     H
N      0.87309  0.80835   0.8852     N
N      0.87933  0.87933  0.14933     N
H       0.8824   0.5186   0.8342     H
H        0.884   0.2922   0.1317     H
H       0.8869   0.4467   0.1251     H
H       0.8901   0.5315   0.2503     H
C      0.89109  0.65955  0.82662     C
H       0.8957   0.6751   0.7241     H
H       0.8958   0.0634   0.7295     H
H       0.8972   0.5592   0.5892     H
C      0.90394  0.41226  0.02823     C
C      0.90626  0.05314  0.24278     C
H       0.9099   0.6741   0.4322     H
C      0.91148   0.3499  0.40958     C
C      0.91226  0.40394  0.47177     C
H       0.9148     0.77   0.3929     H
H       0.9167   0.3493   0.0182     H
N      0.91951  0.91951  0.04625     N
H       0.9275   0.9739   0.2913     H
C       0.9322    0.667   0.0789     C
H       0.9332   0.0918   0.7454     H
C      0.93453  0.66135  0.33537     C
H       0.9351   0.3681   0.5076     H
H       0.9362   0.9966   0.7066     H
H       0.9366   0.1042   0.2705     H
H       0.9396   0.2922   0.4165     H
H       0.9408   0.6028   0.0892     H
C      0.94082   0.6668  0.75862     C
C      0.94248   0.7123  0.39765     C
H       0.9425   0.6627   0.8595     H
H       0.9467   0.3869   0.3749     H
H       0.9476   0.7056   0.2986     H
C      0.94991  0.94991  0.14936     C
H        0.953   0.4626   0.4667     H
H       0.9554   0.9554   0.8126     H
C       0.9559   0.0279  0.26643     C
H       0.9579   0.6833   0.0353     H
H       0.9626    0.453   0.0333     H
H       0.9643   0.7085   0.1118     H
H       0.9685   0.6099   0.7503     H
C       0.9721   0.0441  0.73357     C
H       0.9739   0.9275   0.2913     H
N      0.97638  0.97638  0.08806     N
H       0.9814   0.6176   0.3342     H
H       0.9895   0.7199   0.7588     H
H       0.9919   0.2731   0.5906     H
H       0.9924   0.1278    0.727     H
H       0.9966   0.9362   0.7066     H
C      0.99746  0.99746  0.20797     C
Ag    0.997721 0.151573 0.056432    Ag
