data_I
_chemical_name_common  '/home/zhangsd/repos/MofS-CGCNN/ML/data/WS24/clean_cifs/SCUTC-18'
_cell_length_a 10.92884
_cell_length_b 10.92884
_cell_length_c 56.29662
_cell_angle_alpha 90.00000
_cell_angle_beta  90.00000
_cell_angle_gamma 90.00000
_space_group_name_H-M_alt      'P 1'


loop_
_space_group_symop_operation_xyz
  'x, y, z' 

loop_
_atom_site_label
_atom_site_fract_x
_atom_site_fract_y
_atom_site_fract_z
_atom_site_type_symbol
C      0.00035  0.43205 0.686428     C
C      0.00384  0.11475 0.657338     C
H       0.0063   0.0922   0.3888     H
C      0.00815  0.08527 0.699598     C
C      0.01014  0.61794 0.971065     C
C      0.01314  0.36244 0.752185     C
C      0.01344  0.64334 0.995255     C
H       0.0149   0.0593   0.4597     H
H       0.0248   0.7895   0.3837     H
C      0.02714  0.56704 0.212434     C
C      0.02805  0.93558 0.945499     C
H       0.0328    0.922    0.214     H
C      0.03435  0.91597 0.903269     C
C      0.03444  0.07135 0.424368     C
C      0.03844  0.35914 0.727996     C
H       0.0399   0.8732   0.1434     H
N      0.05254  0.41874 0.637756     N
H        0.057   0.3129   0.7626     H
C      0.05754  0.90044 0.178979     C
H       0.0593   0.0149   0.5403     H
H       0.0595   0.6618   0.9606     H
H       0.0605   0.8024   0.5399     H
H       0.0605   0.8198   0.9988     H
N      0.06054  0.42234 0.510814     N
H       0.0611   0.3274   0.4246     H
O      0.06235  0.22744 0.557116     O
C      0.06325  0.57195 0.145768     C
C      0.06458  0.97205 0.554519     C
C      0.06548  0.84335 0.554361     C
C      0.06625  0.40865 0.419779     C
C      0.06704  0.47294 0.462434     C
C      0.06794  0.17254 0.576448     C
C      0.06805  0.50035 0.436428     C
H       0.0691   0.3733   0.3848     H
Zn    0.069275 0.405805 0.5470488    Zn
O      0.07014  0.58904 0.594676     O
H       0.0704   0.1784   0.2869     H
Zn    0.070825 0.405795 0.6009798    Zn
C      0.07135  0.03444 0.575648     C
C      0.07195  0.43685 0.395768     C
C      0.07325  0.77705 0.574799     C
O      0.07394  0.22044 0.596526     O
C      0.07505  0.64154 0.575019     C
O      0.07605  0.58924 0.555276     O
C      0.07665  0.61984 0.428049     C
N      0.07774  0.56054 0.260814     N
H        0.078   0.9672    0.286     H
H       0.0789   0.6847   0.4387     H
N      0.08134  0.55254 0.387756     N
H       0.0815   0.7436    0.022     H
C      0.08157  0.13485 0.300899     C
C      0.08185  0.64274 0.403498     C
C      0.08417  0.96575 0.596749     C
O      0.08425  0.38644 0.303066     O
C      0.08497  0.84055 0.596339     C
C      0.08527  0.00815 0.300418     C
H       0.0862   0.8291   0.4076     H
C      0.08857  0.74305 0.005018     C
O      0.08904  0.42994 0.844676     O
O      0.08924  0.42405 0.805276     O
C      0.09097  0.77355 0.394459     C
C      0.09145  0.56625 0.169779     C
C      0.09165  0.33384 0.322359     C
H       0.0922   0.0063   0.6112     H
H       0.0932   0.7971   0.6105     H
Zn    0.094205 0.569275 0.2970488    Zn
Zn    0.094215 0.570825 0.3509798    Zn
C      0.09464  0.19784 0.322638     C
O      0.09545  0.75024 0.340346     O
C      0.09834  0.80514 0.320888     C
H       0.0992   0.3075   0.7222     H
O      0.09934  0.38774 0.342256     O
C      0.09964  0.94254 0.321039     C
O      0.10145  0.75324 0.300846     O
C      0.11145  0.12965 0.342969     C
O      0.11234  0.59934 0.092256     O
O      0.11364  0.58425 0.053066     O
C      0.11475  0.00384 0.342678     C
C      0.11794  0.48994 0.221065     C
C      0.11984  0.42345 0.678049     C
H       0.1209     0.17   0.3574     H
H       0.1267   0.5691   0.1348     H
H       0.1268   0.9601   0.3566     H
C      0.12965  0.11145 0.657049     C
C      0.13485  0.08157 0.699119     C
C      0.13764  0.51314 0.502185     C
C      0.14094  0.53844 0.477996     C
C      0.14154  0.42505 0.825019     C
C      0.14274  0.41825 0.653498     C
C      0.14334  0.48664 0.245255     C
C      0.15675  0.93468 0.945641     C
C      0.15955  0.91517 0.903679     C
H       0.1618   0.4405   0.2106     H
C      0.16624  0.59165 0.072359     C
H       0.1674   0.7845   0.3864     H
H         0.17   0.1209   0.6426     H
H       0.1709   0.9138   0.0924     H
H       0.1725   0.7307   0.0006     H
C      0.17254  0.06794 0.423568     C
H       0.1726   0.5611   0.1746     H
H       0.1784   0.0704   0.7131     H
H       0.1802   0.9395   0.5012     H
H       0.1847   0.4211   0.6887     H
H       0.1871    0.557   0.5126     H
H       0.1925   0.5992   0.4722     H
C      0.19494  0.90174 0.179128     C
H       0.1976   0.9395   0.9601     H
C      0.19784  0.09464 0.677378     C
H       0.2029   0.9068   0.8895     H
H       0.2105   0.9752   0.1163     H
H       0.2155   0.8326   0.1136     H
O      0.22044  0.07394 0.403486     O
C      0.22305  0.92685 0.925219     C
C      0.22655  0.90917 0.105559     C
O      0.22744  0.06235 0.442896     O
H       0.2307   0.3275   0.2506     H
C      0.24305  0.41157 0.255018     C
H       0.2436   0.4185    0.272     H
O      0.24684  0.89865 0.199166     O
O      0.24984  0.90465 0.159666     O
O      0.25024  0.40465 0.590346     O
O      0.25324  0.39865 0.550846     O
H       0.2564   0.9185    0.478     H
C      0.25705  0.91157 0.494998     C
H       0.2693   0.8275   0.4994     H
O      0.27264  0.56235 0.307116     O
C      0.27355  0.40917 0.644459     C
C      0.27705  0.42685 0.824799     C
O      0.27964  0.57394 0.346526     O
H       0.2845   0.3326   0.6364     H
H       0.2895   0.4752   0.6337     H
H       0.2971   0.4068   0.8605     H
C      0.30224  0.59464 0.072638     C
H       0.3024   0.4395   0.7899     H
C      0.30514  0.40174 0.570888     C
H       0.3075   0.0992   0.2778     H
H       0.3129    0.057   0.2374     H
H       0.3153   0.9211   0.0613     H
H       0.3198   0.4395   0.2488     H
H       0.3216   0.5704   0.0369     H
H       0.3274   0.0611   0.5754     H
H       0.3275   0.2307   0.7494     H
C      0.32754  0.56794 0.326448     C
H       0.3291   0.4138   0.6576     H
H         0.33   0.6209   0.1074     H
H       0.3326   0.2845   0.3636     H
C      0.33384  0.09165 0.677659     C
H       0.3382   0.9405   0.5394     H
C      0.34055  0.41517 0.846339     C
C      0.34335  0.43468 0.804361     C
C      0.35674  0.98664 0.504755     C
C      0.35734  0.91825 0.096518     C
C      0.35854  0.92505 0.924999     C
C      0.35914  0.03844 0.272016     C
C      0.36244  0.01314 0.247825     C
C      0.36525  0.58157 0.050899     C
C      0.37045  0.61145 0.092969     C
H       0.3732   0.4601   0.3934     H
H       0.3733   0.0691   0.6152     H
H       0.3791     0.67   0.3926     H
C      0.38024  0.92345 0.071969     C
C      0.38214  0.98994 0.528945     C
C      0.38535  0.50384 0.407338     C
O      0.38644  0.08425 0.696946     O
O      0.38774  0.09934 0.657756     O
C      0.38865  0.62965 0.407049     C
O      0.39865  0.25324 0.449166     O
C      0.40044  0.44254 0.428979     C
O      0.40074  0.88774 0.407756     O
H       0.4008   0.8075   0.0278     H
C      0.40174  0.30514 0.429128     C
O      0.40465  0.25024 0.409666     O
C      0.40544  0.69784 0.427378     C
Zn    0.405795 0.070825 0.3990218    Zn
Zn    0.405805 0.069275 0.4529528    Zn
H       0.4068   0.2971   0.1395     H
H       0.4078   0.5063   0.1388     H
C      0.40845  0.83384 0.427659     C
C      0.40865  0.06625 0.580239     C
C      0.40917  0.27355 0.355559     C
O      0.41084  0.92405 0.944736     O
O      0.41104  0.92994 0.905336     O
C      0.41157  0.24305 0.744998     C
H       0.4138   0.3291   0.3424     H
C      0.41487  0.50815 0.449598     C
C      0.41517  0.34055 0.153679     C
O      0.41585  0.88644 0.446946     O
C      0.41597  0.46575 0.153269     C
C      0.41825  0.14274 0.346518     C
H       0.4185   0.2436    0.728     H
C      0.41857  0.63485 0.449119     C
N      0.41874  0.05254 0.362256     N
H       0.4211   0.1847   0.3113     H
H        0.422   0.4672    0.464     H
N      0.42234  0.06054 0.489194     N
C      0.42345  0.11984 0.321969     C
O      0.42405  0.08924 0.194736     O
C      0.42505  0.14154 0.174999     C
O      0.42614  0.72044 0.153486     O
C      0.42685  0.27705 0.175219     C
C      0.42815  0.93685 0.354248     C
C      0.42875  0.53444 0.174368     C
Zn    0.429185 0.905795 0.1490218    Zn
H       0.4296   0.6784   0.4631     H
O      0.42994  0.08904 0.155336     O
Zn    0.430735 0.905805 0.2029528    Zn
H       0.4309   0.8733   0.3652     H
C      0.43205  0.00035 0.313588     C
C      0.43214  0.67254 0.173568     C
C      0.43304  0.97294 0.287574     C
C      0.43385  0.90865 0.330239     C
C      0.43468  0.34335 0.195641     C
C      0.43558  0.47205 0.195499     C
C      0.43685  0.07195 0.604248     C
O      0.43775  0.72744 0.192896     O
H       0.4389   0.8274   0.3254     H
H       0.4395   0.3024   0.2101     H
H       0.4395   0.3198   0.7512     H
N      0.43954  0.92234 0.239194     N
H       0.4405   0.1618   0.7894     H
H       0.4407   0.5149   0.2097     H
C      0.44254  0.40044 0.571039     C
H        0.443   0.8129   0.9874     H
N      0.44754  0.91874 0.112256     N
H       0.4601   0.3732   0.6066     H
C      0.46164  0.85914 0.022016     C
C      0.46564  0.57135 0.325648     C
C      0.46575  0.41597 0.846749     C
H       0.4672    0.422    0.536     H
C      0.47205  0.43558 0.804519     C
C      0.47294  0.06704 0.537574     C
H       0.4752   0.2895   0.3663     H
H       0.4851   0.5593   0.2903     H
C      0.48664  0.14334 0.754755     C
C      0.48694  0.86244 0.997825     C
C      0.48994  0.11794 0.778945     C
C      0.49195  0.58527 0.050418     C
H       0.4937   0.5922   0.3612     H
C      0.49624  0.61475 0.092678     C
C      0.49975  0.93205 0.063588     C
C      0.50035  0.06805 0.563588     C
C      0.50384  0.38535 0.592678     C
H       0.5063   0.4078   0.8612     H
C      0.50815  0.41487 0.550418     C
C      0.51014  0.88214 0.278945     C
C      0.51314  0.13764 0.497825     C
C      0.51344  0.85674 0.254755     C
H       0.5149   0.4407   0.7903     H
H       0.5248   0.7105   0.8663     H
C      0.52714  0.93304 0.037574     C
C      0.52805  0.56458 0.304519     C
H       0.5328    0.578    0.036     H
C      0.53435  0.58417 0.346749     C
C      0.53444  0.42875 0.825648     C
C      0.53844  0.14094 0.522016     C
H       0.5399   0.6268   0.1066     H
N      0.55254  0.08134 0.612256     N
H        0.557   0.1871   0.4874     H
C      0.55754  0.59964 0.071039     C
H       0.5593   0.4851   0.7097     H
H       0.5595   0.8382   0.2894     H
H       0.5605   0.6802   0.2512     H
H       0.5605   0.6976   0.7101     H
N      0.56054  0.07774 0.739194     N
H       0.5611   0.1726   0.8254     H
O      0.56235  0.27264 0.692896     O
C      0.56325  0.92815 0.104248     C
C      0.56458  0.52805 0.695499     C
C      0.56548  0.65675 0.695641     C
C      0.56625  0.09145 0.830239     C
C      0.56704  0.02714 0.787574     C
C      0.56794  0.32754 0.673568     C
C      0.56805  0.99975 0.813588     C
H       0.5691   0.1267   0.8652     H
Zn    0.569275 0.094205 0.7029528    Zn
O      0.57014  0.91104 0.655336     O
H       0.5704   0.3216   0.9631     H
Zn    0.570825 0.094215 0.6490218    Zn
C      0.57135  0.46564 0.674368     C
C      0.57195  0.06325 0.854248     C
C      0.57325  0.72305 0.675219     C
O      0.57394  0.27964 0.653486     O
C      0.57505  0.85854 0.674999     C
O      0.57605  0.91084 0.694736     O
C      0.57665  0.88024 0.821969     C
N      0.57774  0.93954 0.989194     N
H        0.578   0.5328    0.964     H
H       0.5789   0.8153   0.8113     H
N      0.58134  0.94754 0.862256     N
H       0.5815   0.7564    0.228     H
C      0.58157  0.36525 0.949119     C
C      0.58185  0.85734 0.846518     C
C      0.58417  0.53435 0.653269     C
O      0.58425  0.11364 0.946946     O
C      0.58497  0.65955 0.653679     C
C      0.58527  0.49195 0.949598     C
H       0.5862   0.6709   0.8424     H
C      0.58857  0.75705 0.244998     C
O      0.58904  0.07014 0.405336     O
O      0.58924  0.07605 0.444736     O
C      0.59097  0.72655 0.855559     C
C      0.59145  0.93385 0.080239     C
C      0.59165  0.16624 0.927659     C
H       0.5922   0.4937   0.6388     H
H       0.5932   0.7029   0.6395     H
Zn    0.594205 0.930735 0.9529528    Zn
Zn    0.594215 0.929185 0.8990218    Zn
C      0.59464  0.30224 0.927378     C
O      0.59545  0.74984 0.909666     O
C      0.59834  0.69494 0.929128     C
H       0.5992   0.1925   0.5278     H
O      0.59934  0.11234 0.907756     O
C      0.59964  0.55754 0.928979     C
O      0.60145  0.74684 0.949166     O
C      0.61145  0.37045 0.907049     C
O      0.61234  0.90074 0.157756     O
O      0.61364  0.91585 0.196946     O
C      0.61475  0.49624 0.907338     C
C      0.61794  0.01014 0.028945     C
C      0.61984  0.07665 0.571969     C
H       0.6209     0.33   0.8926     H
H       0.6267   0.9309   0.1152     H
H       0.6268   0.5399   0.8934     H
C      0.62965  0.38865 0.592969     C
C      0.63485  0.41857 0.550899     C
C      0.63764  0.98694 0.747825     C
C      0.64094  0.96164 0.772016     C
C      0.64154  0.07505 0.424999     C
C      0.64274  0.08185 0.596518     C
C      0.64334  0.01344 0.004755     C
C      0.65675  0.56548 0.304361     C
C      0.65955  0.58497 0.346339     C
H       0.6618   0.0595   0.0394     H
C      0.66624  0.90845 0.177659     C
H       0.6674   0.7155   0.8636     H
H         0.67   0.3791   0.6074     H
H       0.6709   0.5862   0.1576     H
H       0.6725   0.7693   0.2494     H
C      0.67254  0.43214 0.826448     C
H       0.6726   0.9389   0.0754     H
H       0.6784   0.4296   0.5369     H
H       0.6802   0.5605   0.7488     H
H       0.6847   0.0789   0.5613     H
H       0.6871    0.943   0.7374     H
H       0.6925   0.9008   0.7778     H
C      0.69494  0.59834 0.070888     C
H       0.6976   0.5605   0.2899     H
C      0.69784  0.40544 0.572638     C
H       0.7029   0.5932   0.3605     H
H       0.7105   0.5248   0.1337     H
H       0.7155   0.6674   0.1364     H
O      0.72044  0.42614 0.846526     O
C      0.72305  0.57325 0.324799     C
C      0.72655  0.59097 0.144459     C
O      0.72744  0.43775 0.807116     O
H       0.7307   0.1725   0.9994     H
C      0.74305  0.08857 0.994998     C
H       0.7436   0.0815    0.978     H
O      0.74684  0.60145 0.050846     O
O      0.74984  0.59545 0.090346     O
O      0.75024  0.09545 0.659666     O
O      0.75324  0.10145 0.699166     O
H       0.7564   0.5815    0.772     H
C      0.75705  0.58857 0.755018     C
H       0.7693   0.6725   0.7506     H
O      0.77264  0.93775 0.942896     O
C      0.77355  0.09097 0.605559     C
C      0.77705  0.07325 0.425219     C
O      0.77964  0.92614 0.903486     O
H       0.7845   0.1674   0.6136     H
H       0.7895   0.0248   0.6163     H
H       0.7971   0.0932   0.3895     H
C      0.80224  0.90544 0.177378     C
H       0.8024   0.0605   0.4601     H
C      0.80514  0.09834 0.679128     C
H       0.8075   0.4008   0.9722     H
H       0.8129    0.443   0.0126     H
H       0.8153   0.5789   0.1887     H
H       0.8198   0.0605   0.0012     H
H       0.8216   0.9296   0.2131     H
H       0.8274   0.4389   0.6746     H
H       0.8275   0.2693   0.5006     H
C      0.82754  0.93214 0.923568     C
H       0.8291   0.0862   0.5924     H
H         0.83   0.8791   0.1426     H
H       0.8326   0.2155   0.8864     H
C      0.83384  0.40845 0.572359     C
H       0.8382   0.5595   0.7106     H
C      0.84055  0.08497 0.403679     C
C      0.84335  0.06548 0.445641     C
C      0.85674  0.51344 0.745255     C
C      0.85734  0.58185 0.153498     C
C      0.85854  0.57505 0.325019     C
C      0.85914  0.46164 0.977996     C
C      0.86244  0.48694 0.002185     C
C      0.86525  0.91857 0.199119     C
C      0.87045  0.88865 0.157049     C
H       0.8732   0.0399   0.8566     H
H       0.8733   0.4309   0.6348     H
H       0.8791     0.83   0.8574     H
C      0.88024  0.57665 0.178049     C
C      0.88214  0.51014 0.721065     C
C      0.88535  0.99624 0.842678     C
O      0.88644  0.41585 0.553066     O
O      0.88774  0.40074 0.592256     O
C      0.88865  0.87045 0.842969     C
O      0.89865  0.24684 0.800846     O
C      0.90044  0.05754 0.821039     C
O      0.90074  0.61234 0.842256     O
H       0.9008   0.6925   0.2222     H
C      0.90174  0.19494 0.820888     C
O      0.90465  0.24984 0.840346     O
C      0.90544  0.80224 0.822638     C
Zn    0.905795 0.429185 0.8509798    Zn
Zn    0.905805 0.430735 0.7970488    Zn
H       0.9068   0.2029   0.1105     H
H       0.9078   0.9937   0.1112     H
C      0.90845  0.66624 0.822359     C
C      0.90865  0.43385 0.669779     C
C      0.90917  0.22655 0.894459     C
O      0.91084  0.57605 0.305276     O
O      0.91104  0.57014 0.344676     O
C      0.91157  0.25705 0.505018     C
H       0.9138   0.1709   0.9076     H
C      0.91487  0.99195 0.800418     C
C      0.91517  0.15955 0.096339     C
O      0.91585  0.61364 0.803066     O
C      0.91597  0.03435 0.096749     C
C      0.91825  0.35734 0.903498     C
H       0.9185   0.2564    0.522     H
C      0.91857  0.86525 0.800899     C
N      0.91874  0.44754 0.887756     N
H       0.9211   0.3153   0.9387     H
H        0.922   0.0328    0.786     H
N      0.92234  0.43954 0.760814     N
C      0.92345  0.38024 0.928049     C
O      0.92405  0.41084 0.055276     O
C      0.92505  0.35854 0.075019     C
O      0.92614  0.77964 0.096526     O
C      0.92685  0.22305 0.074799     C
C      0.92815  0.56325 0.895768     C
C      0.92875  0.96564 0.075648     C
Zn    0.929185 0.594215 0.1009798    Zn
H       0.9296   0.8216   0.7869     H
O      0.92994  0.41104 0.094676     O
Zn    0.930735 0.594205 0.0470488    Zn
H       0.9309   0.6267   0.8848     H
C      0.93205  0.49975 0.936428     C
C      0.93214  0.82754 0.076448     C
C      0.93304  0.52714 0.962434     C
C      0.93385  0.59145 0.919779     C
C      0.93468  0.15675 0.054361     C
C      0.93558  0.02805 0.054519     C
C      0.93685  0.42815 0.645768     C
O      0.93775  0.77264 0.057116     O
H       0.9389   0.6726   0.9246     H
H       0.9395   0.1802   0.4988     H
H       0.9395   0.1976   0.0399     H
N      0.93954  0.57774 0.010814     N
H       0.9405   0.3382   0.4606     H
H       0.9407   0.9851   0.0403     H
C      0.94254  0.09964 0.678979     C
H        0.943   0.6871   0.2626     H
N      0.94754  0.58134 0.137756     N
H       0.9601   0.1268   0.6434     H
C      0.96164  0.64094 0.227996     C
C      0.96564  0.92875 0.924368     C
C      0.96575  0.08417 0.403269     C
H       0.9672    0.078    0.714     H
C      0.97205  0.06458 0.445499     C
C      0.97294  0.43304 0.712434     C
H       0.9752   0.2105   0.8837     H
H       0.9851   0.9407   0.9597     H
C      0.98664  0.35674 0.495255     C
C      0.98694  0.63764 0.252185     C
C      0.98994  0.38214 0.471065     C
C      0.99195  0.91487 0.199598     C
H       0.9937   0.9078   0.8888     H
C      0.99624  0.88535 0.157338     C
C      0.99975  0.56805 0.186428     C
