data_I
_chemical_name_common  '/home/zhangsd/repos/MofS-CGCNN/ML/data/WS24/clean_cifs/SCUTC-19'
_cell_length_a 10.92520
_cell_length_b 10.94620
_cell_length_c 13.97230
_cell_angle_alpha 95.20300
_cell_angle_beta  99.23300
_cell_angle_gamma 99.89300
_space_group_name_H-M_alt      'P 1'


loop_
_space_group_symop_operation_xyz
  'x, y, z' 

loop_
_atom_site_label
_atom_site_fract_x
_atom_site_fract_y
_atom_site_fract_z
_atom_site_type_symbol
H       0.0051   0.4052   0.6844     H
H       0.0269    0.723   0.2748     H
H       0.0347   0.2683   0.0858     H
C      0.05599 0.647113  0.28738     C
C      0.06437  0.30837  0.23117     C
H       0.0668   0.6041   0.2272     H
C      0.07108  0.68548  0.75947     C
C      0.09627  0.28139  0.14207     C
O      0.09645  0.67127  0.67494     O
H       0.1053   0.6441   0.4767     H
H       0.1359   0.3535   0.3751     H
O      0.14815  0.70027  0.83855     O
C      0.15588  0.33049  0.31467     C
C      0.18088  0.67769  0.35757     C
C      0.18248  0.66739  0.45707     C
C      0.22068  0.27329  0.13517     C
H       0.2419   0.2569    0.074     H
H         0.26   0.2792   0.6351     H
O      0.27035  0.50165  0.69174     O
H       0.2717   0.0655   0.6385     H
H       0.2754   0.5364    0.187     H
C      0.27977  0.31719  0.30667     C
C      0.28118  0.24949  0.69467     C
Zn    0.281878 0.681949 0.669846    Zn
N      0.28327  0.68767  0.52355     N
H       0.2862   0.9585     0.29     H
C      0.28788  0.11988  0.69627     C
C      0.29399  0.71478  0.32947     C
C     0.294313  0.61361  0.16467     C
H       0.2989    0.546   0.0276     H
C      0.30077  0.46569  0.77287     C
O      0.30217  0.86947  0.70645     O
C      0.30487  0.32908  0.77817     C
C      0.30798  0.72119  0.22607     C
C      0.30881  0.62049  0.06837     C
C      0.31267  0.28908  0.21797     C
C      0.31908  0.07808  0.78577     C
O      0.32505  0.53567  0.85385     O
C      0.32518  0.93948  0.78788     C
N      0.33517  0.72397  0.03185     N
C      0.33549  0.83299  0.18897     C
C      0.33977  0.28548  0.86747     C
H       0.3406   0.3277   0.3629     H
H       0.3417   0.0246   0.2072     H
Zn    0.342098 0.722689 0.886816    Zn
C      0.34408  0.15908  0.86977     C
C      0.34728  0.83059  0.09097     C
C     0.350311  0.96181  0.25028     C
O      0.35225  0.90645  0.87174     O
H         0.36   0.3401   0.9249     H
H        0.364    0.906   0.0654     H
H       0.3642   0.1295   0.9295     H
C      0.39419 0.726713  0.49747     C
C      0.40171 0.737613  0.39978     C
H       0.4321    0.982   0.2912     H
C      0.44707  0.28307  0.21017     C
H        0.467   0.7469   0.5447     H
O      0.47135  0.26247  0.12564     O
O      0.47465  0.70067  0.71124     O
H       0.4802   0.7606    0.382     H
H       0.5198   0.2394    0.618     H
O      0.52545  0.29947  0.28884     O
O      0.52875  0.73767  0.87444     O
H        0.533   0.2531   0.4553     H
C      0.55307  0.71707  0.78997     C
H       0.5679    0.018   0.7088     H
C      0.59831 0.262413  0.60038     C
C      0.60599 0.273313  0.50267     C
H       0.6358   0.8705   0.0705     H
H        0.636    0.094   0.9346     H
H         0.64   0.6599   0.0751     H
O      0.64785  0.09365  0.12834     O
C     0.649711  0.03821  0.74988     C
C      0.65288  0.16959  0.90917     C
C      0.65608  0.84108  0.13037     C
Zn    0.657918 0.277329 0.113196    Zn
H       0.6583   0.9754   0.7928     H
H       0.6594   0.6723   0.6371     H
C      0.66037  0.71468  0.13267     C
C      0.66469  0.16719  0.81117     C
N      0.66497  0.27617  0.96825     N
C      0.67498  0.06068  0.21228     C
O      0.67505  0.46447  0.14625     O
C      0.68108  0.92208  0.21437     C
C      0.68747  0.71108  0.78217     C
C      0.69121  0.37969  0.93177     C
C      0.69218  0.27899  0.77407     C
C      0.69527  0.67108  0.22197     C
O      0.69797  0.13067  0.29365     O
C      0.69937  0.53449  0.22727     C
H       0.7011    0.454   0.9724     H
C     0.705713  0.38641  0.83547     C
C      0.70619  0.28538  0.67067     C
C      0.71228  0.88028  0.30387     C
H       0.7138   0.0415     0.71     H
N      0.71687  0.31247  0.47655     N
Zn    0.718138 0.318069 0.330166    Zn
C      0.71898  0.75069  0.30547     C
C      0.72037  0.68299  0.69347     C
H       0.7246   0.4636    0.813     H
H       0.7283   0.9345   0.3615     H
O      0.72975  0.49845  0.30834     O
H         0.74   0.7208   0.3649     H
H       0.7581   0.7431    0.926     H
C      0.77948  0.72689  0.86497     C
C      0.81768  0.33279  0.54307     C
C      0.81928  0.32249  0.64257     C
C      0.84428  0.66969  0.68547     C
O      0.85195  0.29987  0.16155     O
H       0.8641   0.6465   0.6249     H
H       0.8947   0.3559   0.5233     H
O      0.90365  0.32887  0.32514     O
C      0.90387  0.71879  0.85807     C
C      0.92908  0.31468  0.24067     C
H       0.9332   0.3959   0.7728     H
C      0.93577  0.69177  0.76897     C
C      0.94419 0.352913  0.71278     C
H       0.9653   0.7317   0.9142     H
H       0.9731    0.277   0.7252     H
H       0.9949   0.5948   0.3156     H
