data_I
_chemical_name_common  '/home/zhangsd/repos/MofS-CGCNN/ML/data/WS24/clean_cifs/SEFNOH'
_cell_length_a  4.78980
_cell_length_b 15.72100
_cell_length_c 31.37100
_cell_angle_alpha 90.43900
_cell_angle_beta  90.00000
_cell_angle_gamma 90.00000
_space_group_name_H-M_alt      'P 1'


loop_
_space_group_symop_operation_xyz
  'x, y, z' 

loop_
_atom_site_label
_atom_site_fract_x
_atom_site_fract_y
_atom_site_fract_z
_atom_site_type_symbol
O       0.0007     0.78  0.03179     O
H       0.0059   0.8612   0.7938     H
O       0.0243  0.30615  0.47445     O
H        0.025   0.5528   0.5676     H
H       0.0302   0.0588   0.7479     H
H       0.0322   0.4836   0.7965     H
C       0.0323  0.39851  0.41538     C
H       0.0326   0.6016   0.0543     H
H       0.0363   0.0344   0.2674     H
C       0.0408   0.8978  0.81667     C
C       0.0415  0.97171  0.14613     C
C       0.0536  0.12065   0.6593     C
C       0.0675  0.99036  0.40548     C
H       0.0755   0.5402   0.7219     H
O       0.0812  0.81313  0.93595     O
O       0.0843  0.77535  0.61783     O
C       0.0953    0.024  0.18113     C
H       0.0973    0.159    0.681     H
H       0.1097   0.0275   0.4278     H
O       0.1164  0.87486  0.48288     O
H       0.1192   0.4447   0.7085     H
C       0.1194   0.9813  0.25777     C
H       0.1233   0.3907   0.7843     H
H       0.1303   0.9193   0.1435     H
H       0.1337   0.6263   0.5973     H
N       0.1372  0.06773  0.58986     N
C       0.1387  0.10911  0.51233     C
C       0.1443   0.0021  0.88478     C
H       0.1465   0.5354   0.8649     H
O       0.1505  0.37139  0.09083     O
H        0.151    0.512   0.0419     H
C       0.1548   0.9391  0.33452     C
Cd     0.15814 0.288891 0.029335    Cd
H       0.1659   0.6644   0.1174     H
C       0.1727  0.33286  0.44422     C
H        0.178   0.0368   0.9084     H
H       0.1829   0.3218   0.3462     H
C       0.1919   0.4463  0.79282     C
C        0.196   0.1236  0.62138     C
C       0.2032   0.5697  0.04962     C
C       0.2137  0.99479  0.36798     C
C       0.2151   0.4966  0.71677     C
O       0.2218  0.61949   0.9789     O
N        0.223  0.42707  0.38118     N
C       0.2268  0.87405  0.84797     C
O       0.2287   0.3699  0.15916     O
N       0.2328    0.838  0.62326     N
N       0.2672    0.338  0.12326     N
O       0.2713   0.8699  0.65916     O
C       0.2732  0.37405  0.34797     C
N        0.277  0.92707  0.88118     N
O       0.2782  0.11949   0.4789     O
C       0.2849   0.9966  0.21677     C
C       0.2863  0.49479  0.86798     C
C       0.2968   0.0697  0.54962     C
C        0.304   0.6236  0.12138     C
C       0.3081   0.9463  0.29282     C
H       0.3171   0.8218   0.8462     H
H        0.322   0.5368   0.4084     H
C       0.3273  0.83286  0.94422     C
H       0.3341   0.1644   0.6174     H
Cd     0.34186 0.788891 0.529335    Cd
C       0.3452   0.4391  0.83452     C
H        0.349    0.012   0.5419     H
O       0.3495  0.87139  0.59083     O
H       0.3535   0.0354   0.3649     H
C       0.3557   0.5021  0.38478     C
C       0.3613  0.60911  0.01233     C
N       0.3628  0.56773  0.08986     N
H       0.3663   0.1263   0.0973     H
H       0.3697   0.4193   0.6435     H
H       0.3767   0.8907   0.2843     H
C       0.3806   0.4813  0.75777     C
H       0.3808   0.9447   0.2085     H
O       0.3836  0.37486  0.98288     O
H       0.3903   0.5275   0.9278     H
H       0.4027    0.659    0.181     H
C       0.4047    0.524  0.68113     C
O       0.4157  0.27535  0.11783     O
O       0.4188  0.31313  0.43595     O
H       0.4245   0.0402   0.2219     H
C       0.4325  0.49036  0.90548     C
C       0.4464  0.62065   0.1593     C
C       0.4585  0.47171  0.64613     C
C       0.4592   0.3978  0.31667     C
H       0.4637   0.5344   0.7674     H
H       0.4674   0.1016   0.5543     H
C       0.4677  0.89851  0.91538     C
H       0.4678   0.9836   0.2965     H
H       0.4698   0.5588   0.2479     H
H        0.475   0.0528   0.0676     H
O       0.4757  0.80615  0.97445     O
H       0.4941   0.3612   0.2938     H
O       0.4993     0.28  0.53179     O
O       0.5007     0.72  0.46821     O
H       0.5059   0.6388   0.7062     H
O       0.5243  0.19385  0.02555     O
H        0.525   0.9472   0.9324     H
H       0.5302   0.4412   0.7521     H
H       0.5322   0.0164   0.7035     H
C       0.5323  0.10149  0.08462     C
H       0.5326   0.8984   0.4457     H
H       0.5363   0.4656   0.2326     H
C       0.5408   0.6022  0.68333     C
C       0.5415  0.52829  0.35387     C
C       0.5536  0.37935   0.8407     C
C       0.5675  0.50964  0.09452     C
H       0.5755   0.9598   0.7781     H
O       0.5812  0.68687  0.56405     O
O       0.5843  0.72465  0.88217     O
C       0.5953    0.476  0.31887     C
H       0.5973    0.341    0.819     H
H       0.6097   0.4725   0.0722     H
O       0.6164  0.62514  0.01712     O
H       0.6192   0.0553   0.7915     H
C       0.6194   0.5187  0.24223     C
H       0.6233   0.1093   0.7157     H
H       0.6303   0.5807   0.3565     H
H       0.6337   0.8737   0.9027     H
N       0.6372  0.43227  0.91014     N
C       0.6387  0.39089  0.98767     C
C       0.6443   0.4979  0.61522     C
H       0.6465   0.9646   0.6351     H
O       0.6505  0.12861  0.40917     O
H        0.651    0.988   0.4581     H
C       0.6548   0.5609  0.16548     C
Cd     0.65814 0.211109 0.470665    Cd
H       0.6659   0.8356   0.3826     H
C       0.6727  0.16714  0.05578     C
H        0.678   0.4632   0.5916     H
H       0.6829   0.1782   0.1538     H
C       0.6919   0.0537  0.70718     C
C        0.696   0.3764  0.87862     C
C       0.7032   0.9303  0.45038     C
C       0.7137  0.50521  0.13202     C
C       0.7151   0.0034  0.78323     C
O       0.7218  0.88051   0.5211     O
N        0.723  0.07293  0.11882     N
C       0.7268  0.62595  0.65203     C
O       0.7287   0.1301  0.34084     O
N       0.7328    0.662  0.87674     N
N       0.7672    0.162  0.37674     N
O       0.7713   0.6301  0.84084     O
C       0.7732  0.12595  0.15203     C
N        0.777  0.57293  0.61882     N
O       0.7782  0.38051   0.0211     O
C       0.7849   0.5034  0.28323     C
C       0.7863  0.00521  0.63202     C
C       0.7968   0.4303  0.95038     C
C        0.804   0.8764  0.37862     C
C       0.8081   0.5537  0.20718     C
H       0.8171   0.6782   0.6538     H
H        0.822   0.9632   0.0916     H
C       0.8273  0.66714  0.55578     C
H       0.8341   0.3356   0.8826     H
Cd     0.84186 0.711109 0.970665    Cd
C       0.8452   0.0609  0.66548     C
H        0.849    0.488   0.9581     H
O       0.8495  0.62861  0.90917     O
H       0.8535   0.4646   0.1351     H
C       0.8557   0.9979  0.11522     C
C       0.8613  0.89089  0.48767     C
N       0.8628  0.93227  0.41014     N
H       0.8663   0.3737   0.4027     H
H       0.8697   0.0807   0.8565     H
H       0.8767   0.6093   0.2157     H
C       0.8806   0.0187  0.74223     C
H       0.8808   0.5553   0.2915     H
O       0.8836  0.12514  0.51712     O
H       0.8903   0.9725   0.5722     H
H       0.9027    0.841    0.319     H
C       0.9047    0.976  0.81887     C
O       0.9157  0.22465  0.38217     O
O       0.9188  0.18687  0.06405     O
H       0.9245   0.4598   0.2781     H
C       0.9325  0.00964  0.59452     C
C       0.9464  0.87935   0.3407     C
C       0.9585  0.02829  0.85387     C
C       0.9592   0.1022  0.18333     C
H       0.9637   0.9656   0.7326     H
H       0.9674   0.3984   0.9457     H
C       0.9677  0.60149  0.58462     C
H       0.9678   0.5164   0.2035     H
H       0.9698   0.9412   0.2521     H
H        0.975   0.4472   0.4324     H
O       0.9757  0.69385  0.52555     O
H       0.9941   0.1388   0.2062     H
O       0.9993     0.22  0.96821     O
