data_I
_chemical_name_common  '/home/zhangsd/repos/MofS-CGCNN/ML/data/WS24/clean_cifs/SEFNIB'
_cell_length_a  7.59180
_cell_length_b 10.04520
_cell_length_c 31.69611
_cell_angle_alpha 87.40626
_cell_angle_beta  83.12169
_cell_angle_gamma 67.79770
_space_group_name_H-M_alt      'P 1'


loop_
_space_group_symop_operation_xyz
  'x, y, z' 

loop_
_atom_site_label
_atom_site_fract_x
_atom_site_fract_y
_atom_site_fract_z
_atom_site_type_symbol
C      0.00573  0.73284   0.8003     C
H       0.0137    0.157    0.779     H
N      0.01861  0.82862  0.68156     N
C      0.02221  0.16558   0.0426     C
H       0.0315   0.4664    0.951     H
C      0.03812   0.8161  0.76066     C
H       0.0427    0.657    0.721     H
C      0.04557  0.92052  0.89754     C
C      0.04878   0.3161  0.73934     C
C      0.05603  0.23284   0.6997     C
O       0.0563  0.52442  0.05016     O
H       0.0615   0.4764   0.1902     H
C       0.0633   0.3218   0.8862     C
N      0.06937  0.76364  0.83982     N
H       0.0709    0.631   0.7942     H
C      0.07179  0.25878  0.84764     C
C      0.08131  0.95444  0.60474     C
N      0.08301  0.73636  0.33982     N
H       0.0856   0.9364   0.3482     H
H       0.0949   0.2274   0.0406     H
N      0.09723  0.67138  0.18156     N
H        0.098   0.1178   0.5676     H
C      0.10044  0.39772     0.64     C
Zn     0.10321  0.19679  0.46853    Zn
C      0.10422   0.6839  0.26066     C
C      0.10606  0.80334  0.99494     C
C      0.10632   0.0205  0.56326     C
H       0.1131   0.0668   0.0406     H
C      0.11425  0.52832  0.17118     C
H       0.1151    0.131   0.7058     H
C      0.11694   0.8455  0.36042     C
H       0.1213   0.5266   0.3474     H
H       0.1317    0.582   0.2648     H
C      0.13816  0.60228     0.36     C
H       0.1463   0.2716   0.9058     H
O      0.14649  0.81826  0.03056     O
H       0.1503   0.5106   0.5896     H
N      0.15919  0.26364  0.66018     N
C       0.1594  0.69666  0.49494     C
H       0.1623    0.167   0.8416     H
C      0.16943  0.75878  0.65236     C
H       0.1709    0.833   0.1584     H
H       0.1723   0.8024   0.7552     H
H       0.1775   0.3024   0.7448     H
C      0.17821  0.74122  0.15236     C
C      0.18009  0.81326  0.91616     C
C      0.19311  0.42052  0.60246     C
C      0.19467   0.8179  0.39756     C
C       0.1995   0.8218   0.6138     C
O      0.21038  0.26554   0.5129     O
C      0.21042   0.4702  0.13256     C
C      0.21244   0.6545  0.86042     C
O      0.21475  0.68174  0.53056     O
H       0.2152   0.8908   0.4108     H
C      0.21609  0.57948  0.39754     C
H       0.2205   0.9332   0.9594     H
H       0.2236   0.3778   0.1256     H
H       0.2247   0.6976   0.2552     H
C      0.22857  0.47606   0.0352     C
C      0.23039  0.83442   0.9574     C
H       0.2325   0.9664    0.549     H
C      0.24335  0.68674  0.41616     C
H       0.2505   0.4894   0.4104     H
H       0.2539    0.667   0.6584     H
C      0.26257   0.6821  0.89756     C
C       0.2713   0.6782   0.1138     C
H        0.272   0.5636   0.8482     H
C      0.28575  0.54556  0.10474     C
O      0.29136  0.42208  0.99904     O
H       0.3021   0.7716   0.5942     H
C      0.31481  0.66558   0.4574     C
C      0.32286   0.1545  0.63958     C
H       0.3237   0.7284   0.0942     H
C      0.34625  0.31326  0.58384     C
H        0.349   0.2192   0.2718     H
C        0.351  0.30334  0.50506     C
H        0.356   0.6092   0.9108     H
O      0.35646  0.02442  0.44984     O
H       0.3629   0.7726   0.9594     H
H       0.3702   0.0636   0.6518     H
C      0.37682   0.4795  0.06326     C
H       0.3855   0.7274   0.4594     H
H       0.4037   0.5668   0.4594     H
C      0.41013   0.1821  0.60244     C
H       0.4207    0.343    0.279     H
O      0.42705  0.31826  0.46944     O
H       0.4273   0.2482   0.1944     H
H       0.4299   0.4332   0.5406     H
C      0.43779  0.33442   0.5426     C
H       0.4489   0.5336    0.049     H
C      0.45992  0.23948  0.27688     C
O      0.46518  0.12454   0.9717     O
H       0.4658   0.3822   0.0676     H
H       0.4961    0.369   0.2058     H
H       0.5017   0.9764   0.3098     H
C      0.51377  0.97606   0.4648     C
H       0.5168   0.1092   0.5892     H
N      0.52879  0.17138  0.31844     N
C      0.53543  0.02832  0.32882     C
C      0.53887  0.26716   0.1997     C
O       0.5404  0.92208  0.50096     O
Zn        0.55  0.30321  0.96853    Zn
O      0.56142  0.87546   0.0283     O
H       0.5723   0.2726   0.5406     H
H       0.5793    0.333   0.3416     H
C      0.58057  0.24122  0.34764     C
C      0.59298   0.9702  0.36744     C
H       0.5992   0.8778   0.3744     H
C      0.61488   0.1839  0.23934     C
O      0.63088  0.47558  0.94984     O
C       0.6351   0.1782   0.3862     C
C      0.64049  0.04556  0.39526     C
H       0.6465    0.082   0.2352     H
H       0.6679   0.2284   0.4058     H
N      0.67283  0.23636  0.16018     N
H       0.6838   0.4364   0.1518     H
O      0.68688  0.62454   0.5283     O
C      0.69008   0.9795  0.43674     C
O      0.71248  0.57792  0.00096     O
H       0.7187   0.0266   0.1526     H
O      0.72592  0.23446   0.0129     O
H        0.727   0.6222   0.8744     H
C      0.72736   0.3455  0.13958     C
H       0.7281   0.5236   0.8098     H
H       0.7299   0.1976   0.2448     H
C      0.73983  0.52394   0.9648     C
H       0.7479   0.0336    0.451     H
C      0.74816  0.10228     0.14     C
Zn     0.76853  0.80321  0.53147    Zn
H       0.7834   0.8822   0.4324     H
H       0.7879   0.0236   0.6902     H
C      0.81318   0.5298  0.86744     C
C      0.81375  0.47168  0.82882     C
H       0.8182   0.2808   0.7718     H
Zn     0.82174  0.69679  0.03147    Zn
O      0.83072  0.97558  0.55016     O
O      0.83972  0.37546   0.4717     O
H         0.84   0.7808   0.7282     H
C      0.84223   0.3179  0.10244     C
H       0.8514   0.1222   0.6256     H
C      0.86363  0.07948  0.10246     C
H       0.8699   0.7518   0.8056     H
H       0.8708   0.7192   0.2282     H
H       0.8717   0.7482   0.3056     H
H        0.876   0.3908   0.0892     H
C      0.89257  0.97168  0.67118     C
H       0.8979   0.9734   0.8474     H
C      0.90434  0.19666  0.00506     C
C      0.90951  0.18674  0.08384     C
H       0.9109   0.9894   0.0896     H
H       0.9156   0.6178   0.9324     H
C      0.91958   0.5205  0.93674     C
H       0.9255   0.2518   0.6944     H
C      0.93062   0.0298  0.63256     C
C      0.93605  0.45444  0.89526     C
C       0.9494  0.26052  0.77688     C
H       0.9497    0.843    0.221     H
N      0.95017  0.32862  0.81844     N
H       0.9519    0.869   0.2942     H
C      0.95463  0.02394   0.5352     C
O      0.96344  0.07792  0.49904     O
H       0.9637    0.918   0.7648     H
O      0.97328  0.76554   0.9871     O
C      0.97628  0.76052  0.72312     C
H       0.9785    0.418   0.7352     H
C       0.9868  0.73948  0.22312     C
C      0.98857  0.76716   0.3003     C
O      0.98882  0.73446   0.4871     O
H       0.9899   0.0106   0.9104     H
C      0.99044  0.89772     0.86     C
H       0.9953   0.4734   0.6526     H
O      0.99531  0.18174  0.96944     O
