data_I
_chemical_name_common  '/home/zhangsd/repos/MofS-CGCNN/ML/data/WS24/clean_cifs/SEFNEX'
_cell_length_a  8.12080
_cell_length_b 13.59790
_cell_length_c 18.16110
_cell_angle_alpha 111.89500
_cell_angle_beta  90.00000
_cell_angle_gamma 90.00000
_space_group_name_H-M_alt      'P 1'


loop_
_space_group_symop_operation_xyz
  'x, y, z' 

loop_
_atom_site_label
_atom_site_fract_x
_atom_site_fract_y
_atom_site_fract_z
_atom_site_type_symbol
H        0.012   0.4866   0.4162     H
H       0.0126   0.5427   0.7181     H
H       0.0143    0.552   0.8479     H
C      0.01455  0.52818  0.31844     C
C       0.0232  0.48393  0.84808     C
C      0.03506  0.14983  0.13669     C
O      0.03531  0.98267  0.67342     O
C      0.03591  0.03975  0.10089     C
C       0.0383  0.28386  0.85028     C
H       0.0396   0.2159   0.8512     H
C       0.0444  0.69659  0.20907     C
N      0.04724  0.59797  0.21057     N
N      0.08307  0.02997  0.28522     N
Cd    0.085481 0.814796 0.581535    Cd
H       0.0869   0.4314   0.6678     H
C      0.08936  0.52153  0.39327     C
H       0.0986   0.7516   0.2484     H
H       0.1072   0.5927   0.4317     H
C        0.108   0.4678  0.90812     C
C      0.10957  0.01512  0.90634     C
H       0.1101   0.0886   0.9307     H
C       0.1113  0.79868  0.83164     C
H       0.1128   0.7256   0.8049     H
C      0.11953  0.36602  0.90866     C
C       0.1295  0.57974  0.27729     C
O      0.12968  0.12224  0.29867     O
O         0.13  0.77976  0.01406     O
H       0.1338   0.0036    0.082     H
O      0.13653  0.32919  0.48036     O
O      0.14479  0.95193  0.23359     O
H       0.1478   0.3223   0.3196     H
H       0.1573   0.5245   0.9481     H
O       0.1635  0.17078  0.47882     O
H       0.1678    0.647   0.3155     H
O      0.17129  0.31312   0.1609     O
C      0.18542  0.21428  0.13465     C
O      0.18642  0.66527  0.60184     O
C      0.22167  0.34671  0.97137     C
H       0.2247   0.5346   0.2573     H
N      0.22679  0.26193  0.49223     N
O      0.22965  0.92502  0.52922     O
O      0.24485  0.75208  0.46192     O
C      0.24621  0.35653  0.34014     C
N      0.24852  0.46279  0.37819     N
N      0.25148  0.96279  0.87819     N
C      0.25379  0.85653  0.84014     C
O      0.25515  0.25208  0.96192     O
O      0.27035  0.42502  0.02922     O
N      0.27321  0.76193  0.99223     N
H       0.2753   0.0346   0.7573     H
C      0.27833  0.84671  0.47137     C
O      0.31358  0.16527  0.10184     O
C      0.31458  0.71428  0.63465     C
O      0.32871  0.81312   0.6609     O
H       0.3322    0.147   0.8155     H
O       0.3365  0.67078  0.97882     O
H       0.3427   0.0245   0.4481     H
H       0.3522   0.8223   0.8196     H
O      0.35521  0.45193  0.73359     O
O      0.36347  0.82919  0.98036     O
H       0.3662   0.5036    0.582     H
O         0.37  0.27976  0.51406     O
O      0.37032  0.62224  0.79867     O
C       0.3705  0.07974  0.77729     C
C      0.38047  0.86602  0.40866     C
H       0.3872   0.2256   0.3049     H
C       0.3887  0.29868  0.33164     C
H       0.3899   0.5886   0.4307     H
C      0.39043  0.51512  0.40634     C
C        0.392   0.9678  0.40812     C
H       0.3928   0.0927   0.9317     H
H       0.4014   0.2516   0.7484     H
C      0.41064  0.02153  0.89327     C
H       0.4131   0.9314   0.1678     H
Cd    0.414519 0.314796 0.081535    Cd
N      0.41693  0.52997  0.78522     N
N      0.45276  0.09797  0.71057     N
C       0.4556  0.19659  0.70907     C
H       0.4604   0.7159   0.3512     H
C       0.4617  0.78386  0.35028     C
C      0.46409  0.53975  0.60089     C
O      0.46469  0.48267  0.17342     O
C      0.46494  0.64983  0.63669     C
C       0.4768  0.98393  0.34808     C
C      0.48545  0.02818  0.81844     C
H       0.4857    0.052   0.3479     H
H       0.4874   0.0427   0.2181     H
H        0.488   0.9866   0.9162     H
H        0.512   0.0134   0.0838     H
H       0.5126   0.9573   0.7819     H
H       0.5143    0.948   0.6521     H
C      0.51455  0.97182  0.18156     C
C       0.5232  0.01607  0.65192     C
C      0.53506  0.35017  0.36331     C
O      0.53531  0.51733  0.82658     O
C      0.53591  0.46025  0.39911     C
C       0.5383  0.21614  0.64972     C
H       0.5396   0.2841   0.6488     H
C       0.5444  0.80341  0.29093     C
N      0.54724  0.90203  0.28943     N
N      0.58307  0.47003  0.21478     N
Cd    0.585481 0.685204 0.918465    Cd
H       0.5869   0.0686   0.8322     H
C      0.58936  0.97847  0.10673     C
H       0.5986   0.7484   0.2516     H
H       0.6072   0.9073   0.0683     H
C        0.608   0.0322  0.59188     C
C      0.60957  0.48488  0.59366     C
H       0.6101   0.4114   0.5693     H
C       0.6113  0.70132  0.66836     C
H       0.6128   0.7744   0.6951     H
C      0.61953  0.13398  0.59134     C
C       0.6295  0.92026  0.22271     C
O      0.62968  0.37776  0.20133     O
O         0.63  0.72024  0.48594     O
H       0.6338   0.4964    0.418     H
O      0.63653  0.17081  0.01964     O
O      0.64479  0.54807  0.26641     O
H       0.6478   0.1777   0.1804     H
H       0.6573   0.9755   0.5519     H
O       0.6635  0.32922  0.02118     O
H       0.6678    0.853   0.1845     H
O      0.67129  0.18688   0.3391     O
C      0.68542  0.28572  0.36535     C
O      0.68642  0.83473  0.89816     O
C      0.72167  0.15329  0.52863     C
H       0.7247   0.9654   0.2427     H
N      0.72679  0.23807  0.00777     N
O      0.72965  0.57498  0.97078     O
O      0.74485  0.74792  0.03808     O
C      0.74621  0.14347  0.15986     C
N      0.74852  0.03721  0.12181     N
N      0.75148  0.53721  0.62181     N
C      0.75379  0.64347  0.65986     C
O      0.75515  0.24792  0.53808     O
O      0.77035  0.07498  0.47078     O
N      0.77321  0.73807  0.50777     N
H       0.7753   0.4654   0.7427     H
C      0.77833  0.65329  0.02863     C
O      0.81358  0.33473  0.39816     O
C      0.81458  0.78572  0.86535     C
O      0.82871  0.68688   0.8391     O
H       0.8322    0.353   0.6845     H
O       0.8365  0.82922  0.52118     O
H       0.8427   0.4755   0.0519     H
H       0.8522   0.6777   0.6804     H
O      0.85521  0.04807  0.76641     O
O      0.86347  0.67081  0.51964     O
H       0.8662   0.9964    0.918     H
O         0.87  0.22024  0.98594     O
O      0.87032  0.87776  0.70133     O
C       0.8705  0.42026  0.72271     C
C      0.88047  0.63398  0.09134     C
H       0.8872   0.2744   0.1951     H
C       0.8887  0.20132  0.16836     C
H       0.8899   0.9114   0.0693     H
C      0.89043  0.98488  0.09366     C
C        0.892   0.5322  0.09188     C
H       0.8928   0.4073   0.5683     H
H       0.9014   0.2484   0.7516     H
C      0.91064  0.47847  0.60673     C
H       0.9131   0.5686   0.3322     H
Cd    0.914519 0.185204 0.418465    Cd
N      0.91693  0.97003  0.71478     N
N      0.95276  0.40203  0.78943     N
C       0.9556  0.30341  0.79093     C
H       0.9604   0.7841   0.1488     H
C       0.9617  0.71614  0.14972     C
C      0.96409  0.96025  0.89911     C
O      0.96469  0.01733  0.32658     O
C      0.96494  0.85017  0.86331     C
C       0.9768  0.51607  0.15192     C
C      0.98545  0.47182  0.68156     C
H       0.9857    0.448   0.1521     H
H       0.9874   0.4573   0.2819     H
H        0.988   0.5134   0.5838     H
