data_I
_chemical_name_common  '/home/zhangsd/repos/MofS-CGCNN/ML/data/WS24/clean_cifs/SENWEP'
_cell_length_a 14.10690
_cell_length_b 14.10690
_cell_length_c 14.10690
_cell_angle_alpha 90.00000
_cell_angle_beta  90.00000
_cell_angle_gamma 90.00000
_space_group_name_H-M_alt      'P 1'


loop_
_space_group_symop_operation_xyz
  'x, y, z' 

loop_
_atom_site_label
_atom_site_fract_x
_atom_site_fract_y
_atom_site_fract_z
_atom_site_type_symbol
Zn     0.02008  0.47992  0.52008    Zn
O       0.0224   0.3427   0.6825     O
N        0.029   0.1387     0.09     N
H       0.0391   0.7001   0.7333     H
C        0.045   0.8271   0.8719     C
O        0.049   0.0579    0.076     O
O       0.0549   0.5634   0.6247     O
O         0.06    0.659    0.431     O
O       0.0634   0.8753   0.9451     O
O        0.069     0.94    0.159     O
O        0.077    0.202     0.12     O
N         0.09    0.029   0.1387     N
C       0.0916   0.6868   0.7734     C
C       0.1103   0.7454   0.8513     C
O         0.12    0.077    0.202     O
O       0.1247   0.4451   0.4366     O
C       0.1281    0.545   0.6729     C
N       0.1387     0.09    0.029     N
C       0.1487   0.6103   0.7546     C
O       0.1573   0.3175   0.5224     O
O        0.159    0.069     0.94     O
Zn     0.16822  0.33178  0.66822    Zn
C       0.1729   0.3719    0.455     C
O       0.1825   0.4776   0.6573     O
C       0.1868   0.7266   0.9084     C
H       0.2001   0.7667   0.9609     H
O        0.202     0.12    0.077     O
C       0.2266   0.5916   0.8132     C
H       0.2333   0.4609   0.2999     H
C       0.2454   0.6487   0.8897     C
C       0.2546   0.3513   0.3897     C
H       0.2667   0.5391   0.7999     H
C       0.2734   0.4084   0.3132     C
O        0.298     0.88    0.577     O
H       0.2999   0.2333   0.4609     H
C       0.3132   0.2734   0.4084     C
O       0.3175   0.5224   0.1573     O
C       0.3271   0.6281    0.955     C
Zn     0.33178  0.66822  0.16822    Zn
O        0.341    0.931     0.44     O
O       0.3427   0.6825   0.0224     O
C       0.3513   0.3897   0.2546     C
N       0.3613     0.91    0.529     N
C       0.3719    0.455   0.1729     C
O       0.3753   0.5549   0.9366     O
O         0.38    0.923    0.702     O
C       0.3897   0.2546   0.3513     C
C       0.4084   0.3132   0.2734     C
N         0.41    0.971   0.6387     N
O        0.423    0.798     0.62     O
O        0.424    0.951   0.5579     O
O        0.431     0.06    0.659     O
O       0.4366   0.1247   0.4451     O
O         0.44    0.341    0.931     O
O       0.4451   0.4366   0.1247     O
C        0.455   0.1729   0.3719     C
H       0.4609   0.2999   0.2333     H
N        0.471   0.8613     0.59     N
O       0.4776   0.6573   0.1825     O
Zn     0.47992  0.52008  0.02008    Zn
Zn     0.52008  0.02008  0.47992    Zn
O       0.5224   0.1573   0.3175     O
N        0.529   0.3613     0.91     N
H       0.5391   0.7999   0.2667     H
C        0.545   0.6729   0.1281     C
O        0.549   0.4421    0.924     O
O       0.5549   0.9366   0.3753     O
O         0.56    0.841    0.569     O
O       0.5634   0.6247   0.0549     O
O        0.569     0.56    0.841     O
O        0.577    0.298     0.88     O
N         0.59    0.471   0.8613     N
C       0.5916   0.8132   0.2266     C
C       0.6103   0.7546   0.1487     C
O         0.62    0.423    0.798     O
O       0.6247   0.0549   0.5634     O
C       0.6281    0.955   0.3271     C
N       0.6387     0.41    0.971     N
C       0.6487   0.8897   0.2454     C
O       0.6573   0.1825   0.4776     O
O        0.659    0.431     0.06     O
Zn     0.66822  0.16822  0.33178    Zn
C       0.6729   0.1281    0.545     C
O       0.6825   0.0224   0.3427     O
C       0.6868   0.7734   0.0916     C
H       0.7001   0.7333   0.0391     H
O        0.702     0.38    0.923     O
C       0.7266   0.9084   0.1868     C
H       0.7333   0.0391   0.7001     H
C       0.7454   0.8513   0.1103     C
C       0.7546   0.1487   0.6103     C
H       0.7667   0.9609   0.2001     H
C       0.7734   0.0916   0.6868     C
O        0.798     0.62    0.423     O
H       0.7999   0.2667   0.5391     H
C       0.8132   0.2266   0.5916     C
O       0.8175   0.9776   0.8427     O
C       0.8271   0.8719    0.045     C
Zn     0.83178  0.83178  0.83178    Zn
O        0.841    0.569     0.56     O
O       0.8427   0.8175   0.9776     O
C       0.8513   0.1103   0.7454     C
N       0.8613     0.59    0.471     N
C       0.8719    0.045   0.8271     C
O       0.8753   0.9451   0.0634     O
O         0.88    0.577    0.298     O
C       0.8897   0.2454   0.6487     C
C       0.9084   0.1868   0.7266     C
N         0.91    0.529   0.3613     N
O        0.923    0.702     0.38     O
O        0.924    0.549   0.4421     O
O        0.931     0.44    0.341     O
O       0.9366   0.3753   0.5549     O
O         0.94    0.159    0.069     O
O       0.9451   0.0634   0.8753     O
C        0.955   0.3271   0.6281     C
H       0.9609   0.2001   0.7667     H
N        0.971   0.6387     0.41     N
O       0.9776   0.8427   0.8175     O
Zn     0.97992  0.97992  0.97992    Zn
