data_I
_chemical_name_common  '/home/zhangsd/repos/MofS-CGCNN/ML/data/WS24/clean_cifs/SENWIT'
_cell_length_a 12.66200
_cell_length_b 14.66200
_cell_length_c 15.43400
_cell_angle_alpha 90.00000
_cell_angle_beta  90.00000
_cell_angle_gamma 90.00000
_space_group_name_H-M_alt      'P 1'


loop_
_space_group_symop_operation_xyz
  'x, y, z' 

loop_
_atom_site_label
_atom_site_fract_x
_atom_site_fract_y
_atom_site_fract_z
_atom_site_type_symbol
Zn     0.01137  0.02411  0.54708    Zn
O      0.03864  0.17708  0.68711     O
C       0.0403   0.6864   0.8609     C
H       0.0403   0.8114   0.7371     H
O      0.05447  0.94998   0.6463     O
O      0.07084   0.6297  0.91789     O
C       0.0921   0.8267   0.7792     C
C       0.1069   0.7703   0.8504     C
O      0.12479   0.0309  0.45996     O
C       0.1351   0.9675   0.6928     C
C       0.1519   0.9052   0.7685     C
O      0.15919  0.16027  0.52955     O
C       0.1761   0.1048   0.4693     C
C       0.1825   0.7926    0.913     C
H       0.1928   0.7542   0.9618     H
O      0.19942  0.02925  0.68007     O
Zn     0.20174    0.169  0.65983    Zn
C       0.2282   0.9276   0.8307     C
H       0.2299   0.0191   0.3236     H
C        0.243    0.872   0.9031     C
C        0.257    0.128   0.4031     C
H       0.2701   0.9809   0.8236     H
C       0.2718   0.0724   0.3307     C
Zn     0.29826    0.831  0.15983    Zn
O      0.30058  0.97075  0.18007     O
H       0.3072   0.2458   0.4618     H
C       0.3175   0.2074    0.413     C
C       0.3239   0.8952   0.9693     C
O      0.34081  0.83973  0.02955     O
C       0.3481   0.0948   0.2685     C
C       0.3649   0.0325   0.1928     C
O      0.37521   0.9691  0.95996     O
C       0.3931   0.2297   0.3504     C
C       0.4079   0.1733   0.2792     C
O      0.42916   0.3703  0.41789     O
O      0.44553  0.05002   0.1463     O
H       0.4597   0.1886   0.2371     H
C       0.4597   0.3136   0.3609     C
O      0.46136  0.82292  0.18711     O
Zn     0.48863  0.97589  0.04708    Zn
Zn     0.51137  0.47589  0.45292    Zn
O      0.53864  0.32292  0.31289     O
H       0.5403   0.6886   0.2629     H
C       0.5403   0.8136   0.1391     C
O      0.55447  0.55002   0.3537     O
O      0.57084   0.8703  0.08211     O
C       0.5921   0.6733   0.2208     C
C       0.6069   0.7297   0.1496     C
O      0.62479   0.4691  0.54004     O
C       0.6351   0.5325   0.3072     C
C       0.6519   0.5948   0.2315     C
O      0.65919  0.33973  0.47045     O
C       0.6761   0.3952   0.5307     C
C       0.6825   0.7074    0.087     C
H       0.6928   0.7458   0.0382     H
O      0.69942  0.47075  0.31993     O
Zn     0.70174    0.331  0.34017    Zn
C       0.7282   0.5724   0.1693     C
H       0.7299   0.4809   0.6764     H
C        0.743    0.628   0.0969     C
C        0.757    0.372   0.5969     C
H       0.7701   0.5191   0.1764     H
C       0.7718   0.4276   0.6693     C
Zn     0.79826    0.669  0.84017    Zn
O      0.80058  0.52925  0.81993     O
H       0.8072   0.2542   0.5382     H
C       0.8175   0.2926    0.587     C
C       0.8239   0.6048   0.0307     C
O      0.84081  0.66027  0.97045     O
C       0.8481   0.4052   0.7315     C
C       0.8649   0.4675   0.8072     C
O      0.87521   0.5309  0.04004     O
C       0.8931   0.2703   0.6496     C
C       0.9079   0.3267   0.7208     C
O      0.92916   0.1297  0.58211     O
O      0.94553  0.44998   0.8537     O
C       0.9597   0.1864   0.6391     C
H       0.9597   0.3114   0.7629     H
O      0.96136  0.67708  0.81289     O
Zn     0.98863  0.52411  0.95292    Zn
