data_I
_chemical_name_common  '/home/zhangsd/repos/MofS-CGCNN/ML/data/WS24/clean_cifs/SIFSIX-2-Cu-'
_cell_length_a 13.64901
_cell_length_b 13.64901
_cell_length_c  8.09207
_cell_angle_alpha 90.00000
_cell_angle_beta  90.00000
_cell_angle_gamma 90.00000
_space_group_name_H-M_alt      'P 1'


loop_
_space_group_symop_operation_xyz
  'x, y, z' 

loop_
_atom_site_label
_atom_site_fract_x
_atom_site_fract_y
_atom_site_fract_z
_atom_site_type_symbol
Si         0.0      0.0      0.0    Si
F          0.0      0.0  0.20927     F
Cu         0.0      0.0      0.5    Cu
F          0.0      0.0  0.79087     F
N          0.0  0.14764      0.5     N
H          0.0 0.157257 0.246493     H
H          0.0 0.157257 0.753507     H
C          0.0  0.19784  0.36247     C
C          0.0  0.19784  0.63767     C
C          0.0  0.30014  0.35437     C
C          0.0  0.30014  0.64577     C
H          0.0  0.33778 0.235676     H
H          0.0  0.33778 0.764324     H
C          0.0  0.35194      0.5     C
C          0.0  0.45695      0.5     C
C          0.0  0.54315      0.5     C
C          0.0  0.64814      0.5     C
H          0.0  0.66222 0.235676     H
H          0.0  0.66222 0.764324     H
C          0.0  0.69994  0.35437     C
C          0.0  0.69994  0.64577     C
C          0.0  0.80224  0.36247     C
C          0.0  0.80224  0.63767     C
H          0.0 0.842743 0.246493     H
H          0.0 0.842743 0.753507     H
N          0.0  0.85244      0.5     N
C      0.04315      0.5      0.0     C
F     0.066814  0.10339      0.0     F
F      0.10339 0.933214      0.0     F
N      0.14764      0.0      0.5     N
C      0.14814      0.5      0.0     C
H     0.157257      0.0 0.246493     H
H     0.157257      0.0 0.753507     H
H      0.16222      0.5 0.264324     H
H      0.16222      0.5 0.735676     H
C      0.19784      0.0  0.36247     C
C      0.19784      0.0  0.63767     C
C      0.19994      0.5  0.14577     C
C      0.19994      0.5  0.85437     C
C      0.30014      0.0  0.35437     C
C      0.30014      0.0  0.64577     C
C      0.30224      0.5  0.13767     C
C      0.30224      0.5  0.86247     C
H      0.33778      0.0 0.235676     H
H      0.33778      0.0 0.764324     H
H      0.34274      0.5 0.253507     H
H      0.34274      0.5 0.746493     H
C      0.35194      0.0      0.5     C
N      0.35244      0.5      0.0     N
F      0.39679 0.566814      0.5     F
F     0.433214  0.39679      0.5     F
C      0.45695      0.0      0.5     C
C          0.5  0.04315      0.0     C
C          0.5  0.14814      0.0     C
H          0.5  0.16222 0.264324     H
H          0.5  0.16222 0.735676     H
C          0.5  0.19994  0.14577     C
C          0.5  0.19994  0.85437     C
C          0.5  0.30224  0.13767     C
C          0.5  0.30224  0.86247     C
H          0.5 0.342743 0.253507     H
H          0.5 0.342743 0.746493     H
N          0.5  0.35244      0.0     N
Cu         0.5      0.5      0.0    Cu
F          0.5      0.5  0.29087     F
Si         0.5      0.5      0.5    Si
F          0.5      0.5  0.70927     F
N          0.5  0.64764      0.0     N
H          0.5 0.657257 0.253507     H
H          0.5 0.657257 0.746493     H
C          0.5  0.69784  0.13767     C
C          0.5  0.69784  0.86247     C
C          0.5  0.80014  0.14577     C
C          0.5  0.80014  0.85437     C
H          0.5  0.83778 0.264324     H
H          0.5  0.83778 0.735676     H
C          0.5  0.85194      0.0     C
C          0.5  0.95695      0.0     C
C      0.54315      0.0      0.5     C
F     0.566814  0.60339      0.5     F
F      0.60339 0.433214      0.5     F
N      0.64764      0.5      0.0     N
C      0.64814      0.0      0.5     C
H     0.657257      0.5 0.253507     H
H     0.657257      0.5 0.746493     H
H      0.66222      0.0 0.235676     H
H      0.66222      0.0 0.764324     H
C      0.69784      0.5  0.13767     C
C      0.69784      0.5  0.86247     C
C      0.69994      0.0  0.35437     C
C      0.69994      0.0  0.64577     C
C      0.80014      0.5  0.14577     C
C      0.80014      0.5  0.85437     C
C      0.80224      0.0  0.36247     C
C      0.80224      0.0  0.63767     C
H      0.83778      0.5 0.264324     H
H      0.83778      0.5 0.735676     H
H     0.842743      0.0 0.246493     H
H     0.842743      0.0 0.753507     H
C      0.85194      0.5      0.0     C
N      0.85244      0.0      0.5     N
F      0.89679 0.066814      0.0     F
F     0.933214  0.89679      0.0     F
C      0.95695      0.5      0.0     C
