data_I
_chemical_name_common  '/home/zhangsd/repos/MofS-CGCNN/ML/data/WS24/clean_cifs/SIFSIX-3-Zn'
_cell_length_a  7.14091
_cell_length_b  7.14091
_cell_length_c  7.60682
_cell_angle_alpha 90.00000
_cell_angle_beta  90.00000
_cell_angle_gamma 90.00000
_space_group_name_H-M_alt      'P 1'


loop_
_space_group_symop_operation_xyz
  'x, y, z' 

loop_
_atom_site_label
_atom_site_fract_x
_atom_site_fract_y
_atom_site_fract_z
_atom_site_type_symbol
C      0.09868      0.5  0.35557     C
C      0.09868      0.5  0.64457     C
H       0.1614      0.5   0.2485     H
H       0.1614      0.5   0.7515     H
N      0.19588      0.5      0.5     N
F      0.33594  0.33594      0.0     F
F      0.33594  0.66414      0.0     F
C          0.5  0.09868  0.35557     C
C          0.5  0.09868  0.64457     C
H          0.5   0.1614   0.2485     H
H          0.5   0.1614   0.7515     H
N          0.5  0.19588      0.5     N
Si         0.5      0.5      0.0    Si
F          0.5      0.5  0.22967     F
Zn         0.5      0.5      0.5    Zn
F          0.5      0.5  0.77047     F
N          0.5  0.80428      0.5     N
H          0.5   0.8386   0.2485     H
H          0.5   0.8386   0.7515     H
C          0.5  0.90148  0.35557     C
C          0.5  0.90148  0.64457     C
F      0.66414  0.33594      0.0     F
F      0.66414  0.66414      0.0     F
N      0.80428      0.5      0.5     N
H       0.8386      0.5   0.2485     H
H       0.8386      0.5   0.7515     H
C      0.90148      0.5  0.35557     C
C      0.90148      0.5  0.64457     C
