data_I
_chemical_name_common  '/home/zhangsd/repos/MofS-CGCNN/ML/data/WS24/clean_cifs/SIFVAG'
_cell_length_a 10.28820
_cell_length_b 14.47240
_cell_length_c 31.03000
_cell_angle_alpha 90.00000
_cell_angle_beta  91.99100
_cell_angle_gamma 90.00000
_space_group_name_H-M_alt      'P 1'


loop_
_space_group_symop_operation_xyz
  'x, y, z' 

loop_
_atom_site_label
_atom_site_fract_x
_atom_site_fract_y
_atom_site_fract_z
_atom_site_type_symbol
H       0.0246   0.7332    0.308     H
H       0.0246   0.7668    0.808     H
H       0.0269   0.5496   0.7515     H
H       0.0269   0.9504   0.2515     H
C        0.029   0.0021   0.8502     C
C        0.029   0.4979   0.3502     C
H       0.0351   0.1829   0.7831     H
H       0.0351   0.3171   0.2831     H
H       0.0373   0.6009   0.8968     H
H       0.0373   0.8991   0.3968     H
H       0.0398   0.7085   0.9024     H
H       0.0398   0.7915   0.4024     H
O       0.0404   0.0261   0.0623     O
O       0.0404   0.4739   0.5623     O
H       0.0439   0.5292   0.6382     H
H       0.0439   0.9708   0.1382     H
C       0.0461   0.0069   0.8062     C
C       0.0461   0.4931   0.3062     C
H       0.0469   0.1206   0.6755     H
H       0.0469   0.3794   0.1755     H
C        0.047   0.6587   0.8822     C
C        0.047   0.8413   0.3822     C
H       0.0507   0.1886   0.1542     H
H       0.0507   0.3114   0.6542     H
C        0.051   0.6596   0.7127     C
C        0.051   0.8404   0.2127     C
C        0.053   0.2362   0.1757     C
C        0.053   0.2638   0.6757     C
C        0.054   0.5571   0.7217     C
C        0.054   0.9429   0.2217     C
C       0.0612   0.1682   0.6537     C
C       0.0612   0.3318   0.1537     C
H       0.0747   0.6706   0.6835     H
H       0.0747   0.8294   0.1835     H
H       0.0798   0.6415   0.2201     H
H       0.0798   0.8585   0.7201     H
S      0.08862  0.55164  0.43312     S
S      0.08862  0.94836  0.93312     S
H       0.1115   0.6905   0.7321     H
H       0.1115   0.8095   0.2321     H
O       0.1118   0.6433   0.4449     O
O       0.1118   0.8567   0.9449     O
C       0.1188   0.5426   0.3773     C
C       0.1188   0.9574   0.8773     C
H       0.1277   0.2276   0.1947     H
H       0.1277   0.2724   0.6947     H
C       0.1282   0.5886   0.2147     C
C       0.1282   0.9114   0.7147     C
H       0.1306    0.661   0.8695     H
H       0.1306    0.839   0.3695     H
H       0.1429   0.5832    0.149     H
H       0.1429   0.9168    0.649     H
C       0.1576   0.5353   0.2907     C
C       0.1576   0.9647   0.7907     C
C        0.163   0.5568   0.1757     C
C        0.163   0.9432   0.6757     C
N       0.1776   0.5286  0.24444     N
N       0.1776   0.9714  0.74444     N
O        0.181   0.0073    0.954     O
O        0.181   0.4927    0.454     O
H       0.1859   0.0487   0.2344     H
H       0.1859   0.4513   0.7344     H
C        0.188   0.5093   0.7194     C
C        0.188   0.9907   0.2194     C
H       0.1885   0.2386   0.0937     H
H       0.1885   0.2614   0.5937     H
C       0.1965   0.1543   0.6364     C
C       0.1965   0.3457   0.1364     C
H       0.2076   0.0013   0.1898     H
H       0.2076   0.4987   0.6898     H
Na      0.2156   0.0318  0.02409    Na
Na      0.2156   0.4682  0.52409    Na
C       0.2287    0.582   0.3614     C
C       0.2287    0.918   0.8614     C
N       0.2335   0.0219  0.68349     N
N       0.2335   0.4781  0.18349     N
C       0.2413    0.214   0.6045     C
C       0.2413    0.286   0.1045     C
C       0.2429   0.0412    0.726     C
C       0.2429   0.4588    0.226     C
C        0.251    0.579   0.3168     C
C        0.251    0.921   0.8168     C
H       0.2537   0.5482   0.7326     H
H       0.2537   0.9518   0.2326     H
C       0.2807   0.0834   0.6509     C
C       0.2807   0.4166   0.1509     C
H       0.2872   0.7444   0.8025     H
H       0.2872   0.7556   0.3025     H
H       0.2886   0.6108     0.38     H
Na      0.2886   0.7059  0.48229    Na
Na      0.2886   0.7941  0.98229    Na
H       0.2886   0.8892     0.88     H
O        0.318   0.6074   0.5415     O
O        0.318   0.8926   0.0415     O
O       0.3308   0.1529   0.0423     O
O       0.3308   0.3471   0.5423     O
Ag     0.33509  0.14813  0.75853    Ag
Ag     0.33509  0.35187  0.25853    Ag
H       0.3501   0.0251    0.309     H
H       0.3501   0.4749    0.809     H
H       0.3572   0.0518    0.383     H
H       0.3572   0.4482    0.883     H
H       0.3578   0.5733   0.8301     H
H       0.3578   0.9267   0.3301     H
C        0.364   0.2016   0.5893     C
C        0.364   0.2984   0.0893     C
H       0.3676   0.6199   0.2677     H
H       0.3676   0.8801   0.7677     H
C        0.369    0.717   0.6018     C
C        0.369    0.783   0.1018     C
S       0.3699   0.6043  0.58821     S
S       0.3699   0.8957  0.08821     S
C       0.3714   0.7303   0.3095     C
C       0.3714   0.7697   0.8095     C
C       0.3716   0.6266   0.2991     C
C       0.3716   0.8734   0.7991     C
H       0.3915   0.7391   0.3397     H
H       0.3915   0.7609   0.8397     H
C       0.4049   0.0699   0.6351     C
C       0.4049   0.4301   0.1351     C
C       0.4071   0.5249   0.8172     C
C       0.4071   0.9751   0.3172     C
S       0.4233  0.22092  0.04903     S
S       0.4233  0.27908  0.54903     S
H       0.4327   0.1088   0.1964     H
H       0.4327   0.3912   0.6964     H
H       0.4351   0.5516   0.1667     H
H       0.4351   0.9484   0.6667     H
H       0.4356   0.7391   0.7929     H
H       0.4356   0.7609   0.2929     H
Cl      0.4383   0.2381  0.29843    Cl
Cl      0.4383   0.2619  0.79843    Cl
O       0.4452   0.2249   0.5115     O
O       0.4452   0.2751   0.0115     O
C       0.4469   0.1318   0.6044     C
C       0.4469   0.3682   0.1044     C
H       0.4479   0.5484    0.792     H
H       0.4479   0.9516    0.292     H
C       0.4492    0.063   0.3836     C
C       0.4492    0.437   0.8836     C
O       0.4548    0.686   0.4343     O
O       0.4548    0.814   0.9343     O
C       0.4625   0.0872   0.9176     C
C       0.4625   0.4128   0.4176     C
H       0.4649   0.1277   0.3791     H
H       0.4649   0.3723   0.8791     H
H       0.4697   0.6267   0.9061     H
H       0.4697   0.8733   0.4061     H
H       0.4866   0.0446    0.411     H
H       0.4866   0.4554    0.911     H
H       0.4907   0.5158   0.3079     H
H       0.4907   0.9842   0.8079     H
C       0.4908   0.5091   0.1511     C
C       0.4908   0.9909   0.6511     C
C       0.4931   0.5799   0.3158     C
C       0.4931   0.9201   0.8158     C
H       0.4992   0.5852   0.3467     H
H       0.4992   0.9148   0.8467     H
H       0.5008   0.0852   0.1533     H
H       0.5008   0.4148   0.6533     H
C       0.5069   0.0799   0.1842     C
C       0.5069   0.4201   0.6842     C
C       0.5092   0.0091   0.3489     C
C       0.5092   0.4909   0.8489     C
H       0.5093   0.0158   0.1921     H
H       0.5093   0.4842   0.6921     H
H       0.5134   0.5446    0.089     H
H       0.5134   0.9554    0.589     H
H       0.5303   0.1267   0.5939     H
H       0.5303   0.3733   0.0939     H
H       0.5351   0.6277   0.1209     H
H       0.5351   0.8723   0.6209     H
C       0.5375   0.5872   0.5824     C
C       0.5375   0.9128   0.0824     C
O       0.5452    0.186   0.0657     O
O       0.5452    0.314   0.5657     O
C       0.5508    0.563   0.1164     C
C       0.5508    0.937   0.6164     C
H       0.5521   0.0484    0.708     H
H       0.5521   0.4516    0.208     H
C       0.5531   0.6318   0.8956     C
C       0.5531   0.8682   0.3956     C
O       0.5548   0.7249   0.9885     O
O       0.5548   0.7751   0.4885     O
Cl      0.5617   0.7381  0.20157    Cl
Cl      0.5617   0.7619  0.70157    Cl
H       0.5644   0.2391   0.7071     H
H       0.5644   0.2609   0.2071     H
H       0.5649   0.0516   0.3333     H
H       0.5649   0.4484   0.8333     H
H       0.5673   0.6088   0.3036     H
H       0.5673   0.8912   0.8036     H
S       0.5767  0.72092  0.45097     S
S       0.5767  0.77908  0.95097     S
C       0.5929   0.0249   0.6828     C
C       0.5929   0.4751   0.1828     C
C       0.5951   0.5699   0.8649     C
C       0.5951   0.9301   0.3649     C
H       0.6085   0.2391   0.1603     H
H       0.6085   0.2609   0.6603     H
C       0.6284   0.1266   0.2009     C
C       0.6284   0.3734   0.7009     C
C       0.6286   0.2303   0.1905     C
C       0.6286   0.2697   0.6905     C
S       0.6301   0.1043  0.91179     S
S       0.6301   0.3957  0.41179     S
C        0.631    0.217   0.8982     C
C        0.631    0.283   0.3982     C
H       0.6324   0.1199   0.2323     H
H       0.6324   0.3801   0.7323     H
C        0.636   0.7016   0.9107     C
C        0.636   0.7984   0.4107     C
H       0.6422   0.0733   0.6699     H
H       0.6422   0.4267   0.1699     H
H       0.6428   0.5518    0.117     H
H       0.6428   0.9482    0.617     H
H       0.6499   0.5251    0.191     H
H       0.6499   0.9749    0.691     H
Ag     0.66491  0.64813  0.74147    Ag
Ag     0.66491  0.85187  0.24147    Ag
O       0.6692   0.6529   0.4577     O
O       0.6692   0.8471   0.9577     O
O        0.682   0.1074   0.9585     O
O        0.682   0.3926   0.4585     O
H       0.7114   0.1108     0.12     H
Na      0.7114   0.2059  0.01771    Na
Na      0.7114   0.2941  0.51771    Na
H       0.7114   0.3892     0.62     H
H       0.7128   0.2444   0.6975     H
H       0.7128   0.2556   0.1975     H
C       0.7193   0.5834   0.8491     C
C       0.7193   0.9166   0.3491     C
H       0.7463   0.0482   0.7674     H
H       0.7463   0.4518   0.2674     H
C        0.749    0.079   0.1832     C
C        0.749    0.421   0.6832     C
C       0.7571   0.5412    0.774     C
C       0.7571   0.9588    0.274     C
C       0.7587    0.714   0.8955     C
C       0.7587    0.786   0.3955     C
N       0.7665   0.5219  0.81651     N
N       0.7665   0.9781  0.31651     N
C       0.7713    0.082   0.1386     C
C       0.7713    0.418   0.6386     C
Na      0.7844   0.5318  0.47591    Na
Na      0.7844   0.9682  0.97591    Na
H       0.7924   0.5013   0.3102     H
H       0.7924   0.9987   0.8102     H
C       0.8035   0.6543   0.8636     C
C       0.8035   0.8457   0.3636     C
H       0.8115   0.7386   0.4063     H
H       0.8115   0.7614   0.9063     H
C        0.812   0.0093   0.7806     C
C        0.812   0.4907   0.2806     C
H       0.8141   0.5487   0.2656     H
H       0.8141   0.9513   0.7656     H
O        0.819   0.5073    0.546     O
O        0.819   0.9927    0.046     O
N       0.8224   0.0286  0.25556     N
N       0.8224   0.4714  0.75556     N
C        0.837   0.0568   0.3243     C
C        0.837   0.4432   0.8243     C
C       0.8424   0.0353   0.2093     C
C       0.8424   0.4647   0.7093     C
H       0.8571   0.0832    0.351     H
H       0.8571   0.4168    0.851     H
H       0.8694    0.161   0.6305     H
H       0.8694    0.339   0.1305     H
C       0.8718   0.0886   0.2853     C
C       0.8718   0.4114   0.7853     C
H       0.8723   0.7276   0.3053     H
H       0.8723   0.7724   0.8053     H
C       0.8812   0.0426   0.1227     C
C       0.8812   0.4574   0.6227     C
O       0.8882   0.1433   0.0551     O
O       0.8882   0.3567   0.5551     O
H       0.8885   0.1905   0.7679     H
H       0.8885   0.3095   0.2679     H
S      0.91138  0.05164  0.06688     S
S      0.91138  0.44836  0.56688     S
H       0.9202   0.1415   0.2799     H
H       0.9202   0.3585   0.7799     H
H       0.9253   0.1706   0.8165     H
H       0.9253   0.3294   0.3165     H
C       0.9388   0.6682   0.8463     C
C       0.9388   0.8318   0.3463     C
C        0.946   0.0571   0.7783     C
C        0.946   0.4429   0.2783     C
C        0.947   0.7362   0.3243     C
C        0.947   0.7638   0.8243     C
C        0.949   0.1596   0.7873     C
C        0.949   0.3404   0.2873     C
H       0.9493   0.6886   0.3458     H
H       0.9493   0.8114   0.8458     H
C        0.953   0.1587   0.6178     C
C        0.953   0.3413   0.1178     C
H       0.9531   0.6206   0.8245     H
H       0.9531   0.8794   0.3245     H
C       0.9539   0.5069   0.6938     C
C       0.9539   0.9931   0.1938     C
H       0.9561   0.0292   0.8618     H
H       0.9561   0.4708   0.3618     H
O       0.9596   0.5261   0.4377     O
O       0.9596   0.9739   0.9377     O
H       0.9602   0.2085   0.5976     H
H       0.9602   0.2915   0.0976     H
H       0.9627   0.1009   0.6032     H
H       0.9627   0.3991   0.1032     H
H       0.9649   0.6829   0.7169     H
H       0.9649   0.8171   0.2169     H
C        0.971   0.5021   0.6498     C
C        0.971   0.9979   0.1498     C
H       0.9731   0.0496   0.7485     H
H       0.9731   0.4504   0.2485     H
H       0.9754   0.2332    0.192     H
H       0.9754   0.2668    0.692     H
