data_I
_chemical_name_common  '/home/zhangsd/repos/MofS-CGCNN/ML/data/WS24/clean_cifs/SNU-80'
_cell_length_a 24.80764
_cell_length_b 24.80764
_cell_length_c 12.22332
_cell_angle_alpha 90.00000
_cell_angle_beta  90.00000
_cell_angle_gamma 90.00000
_space_group_name_H-M_alt      'P 1'


loop_
_space_group_symop_operation_xyz
  'x, y, z' 

loop_
_atom_site_label
_atom_site_fract_x
_atom_site_fract_y
_atom_site_fract_z
_atom_site_type_symbol
H     -0.726477  1.53341 -0.123945     H
H     -0.726406 0.966462 -1.37569     H
H     -0.715897  1.06679 -1.36993     H
H     -0.715897  1.43321 -0.130067     H
H     -0.690398 0.964443 -1.50143     H
H     -0.690212  1.53569 0.00146619     H
H     -0.68845  1.00948 -1.21529     H
H     -0.68845  1.49052 -0.284712     H
C     -0.68667  0.96338 -1.412714     C
C     -0.68667  1.53678 -0.087314     C
H     -0.679889  1.06478 -1.49567     H
H     -0.679889  1.43522 -0.00433292     H
C     -0.67627  1.06267  -1.4072     C
C     -0.67627  1.43747  -0.0932     C
H     -0.668051  1.57454 -0.112219     H
H     -0.667936 0.925449 -1.38818     H
C     -0.65247  1.00935 -1.375411     C
C     -0.65247  1.49075 -0.124611     C
H     -0.650107  1.09496 -1.37836     H
H     -0.650107  1.40504 -0.121639     H
C     -0.64837 1.006511 -1.25081     C
C     -0.64837 1.493511 -0.24921     C
H     -0.630023 0.968347 -1.22701     H
H     -0.630023  1.53165 -0.272986     H
H     -0.623505  1.03968  -1.2213     H
H     -0.623505  1.46032 -0.278705     H
H     -0.594959  1.15011 -1.62164     H
C     -0.59444  1.00434 -1.42397     C
C     -0.59444  1.49574 -0.07617     C
O     -0.5900316  0.98742 -1.51854     O
O     -0.5900316  1.51262  0.01854     O
H     -0.574544  1.66805 -0.112219     H
H     -0.566795   1.2159 -1.63007     H
H     -0.564776  1.17989 -1.50433     H
C     -0.56267  1.17627  -1.5932     C
O     -0.55712  1.02152 -1.36754     O
O     -0.55712  1.47852 -0.13254     O
H     -0.53968  1.12351  -1.7787     H
C     -0.53678  1.68667 -0.087314     C
H     -0.535688  1.69021 0.00146619     H
H     -0.533414  1.72648 -0.123945     H
H     -0.531653  1.63002 -0.272986     H
O     -0.52152  1.05712 -1.63254     O
Cu    -0.520202 0.979802 -1.591745    Cu
Cu    -0.520202 1.520202 0.091745    Cu
O     -0.51262 1.5900316  0.01854     O
H     -0.509478  1.18845 -1.78471     H
C     -0.50935  1.15247 -1.624611     C
H     -0.50814  0.99186  -1.1576     H
H     -0.50814  1.50814 -0.342395     H
C     -0.506511  1.14837 -1.74921     C
C     -0.50434  1.09444 -1.57617     C
C     -0.49574  1.59444 -0.07617     C
C     -0.493511  1.64837 -0.24921     C
C     -0.49075  1.65247 -0.124611     C
H     -0.490522  1.68845 -0.284712     H
O     -0.48742 1.0900316 -1.48154     O
O     -0.48742 1.4099716 -0.01854     O
Cu    -0.479802 1.020202 -1.408265    Cu
Cu    -0.479802 1.479802 -0.091745    Cu
O     -0.47852  0.94292 -1.36754     O
O     -0.47852  1.55712 -0.13254     O
C     -0.47712  1.02292 -1.15837     C
C     -0.47712  1.47712 -0.34177     C
H     -0.468347  1.13002 -1.77299     H
H     -0.466462  1.22641 -1.62431     H
H     -0.464443   1.1904 -1.49857     H
H     -0.464242  1.03576 -0.985222     H
H     -0.464242  1.46424 -0.514778     H
C     -0.46338  1.18667 -1.587314     C
H     -0.46032  1.62351 -0.278705     H
C     -0.45472  1.04532 -1.07007     C
C     -0.45472  1.45472 -0.43007     C
N     -0.4546916 1.0453116 -1.24964     N
N     -0.4546916 1.4546916 -0.25044     N
H     -0.450567  1.15726 -0.972192     H
H     -0.450567  1.34274 -0.527808     H
H     -0.446015  1.16841 -1.34581     H
H     -0.446015  1.33159 -0.154191     H
C     -0.43747  1.67627  -0.0932     C
H     -0.435224  1.67989 -0.00433292     H
H     -0.433205   1.7159 -0.130067     H
H     -0.425449  1.16794 -1.61182     H
C     -0.4188018 1.0812018 -1.21644     C
C     -0.4188018 1.4188018 -0.28364     C
N     -0.4182116 1.0817916 -1.10434     N
N     -0.4182116 1.4182116 -0.39574     N
H     -0.411921  1.19227 -1.22734     H
H     -0.411921  1.30773 -0.272659     H
O     -0.4099716  1.01262 -1.48154     O
O     -0.4099716  1.48742 -0.01854     O
C     -0.40711  1.17138  -1.3052     C
C     -0.40711  1.32878  -0.1952     C
C     -0.40704  1.15205 -0.96999     C
C     -0.40704  1.34805 -0.53019     C
H     -0.405041  1.65011 -0.121639     H
H     -0.397186  1.21011 -0.843548     H
H     -0.397186  1.28989 -0.656452     H
C     -0.38512  1.11492 -1.28437     C
C     -0.38512  1.38512 -0.21577     C
C     -0.38402  1.11602 -1.03585     C
C     -0.38402  1.38402 -0.46425     C
H     -0.379095  1.19355 -1.35665     H
H     -0.379095  1.30645 -0.143348     H
C     -0.37704  1.18255 -0.89948     C
C     -0.37704  1.31755 -0.60068     C
H     -0.346914  1.10105 -1.31808     H
H     -0.346914  1.39895 -0.181923     H
H     -0.345544   1.2247 -0.69848     H
H     -0.345544   1.2753 -0.80152     H
C     -0.32774  1.10874 -1.03417     C
C     -0.32774  1.39134 -0.46597     C
C     -0.3212216 1.1787816 -0.89804     C
C     -0.3212216 1.3212216 -0.60204     C
C     -0.32022     1.25    -0.75     C
H     -0.308595  1.07873  -1.0864     H
H     -0.308595  1.42127 -0.413602     H
C     -0.29724  1.14044 -0.96467     C
C     -0.29724  1.35964 -0.53547     C
C     -0.2864313 1.2135713 -0.82374     C
C     -0.2864313 1.2864313 -0.67634     C
H     -0.275344  1.22466 -0.554463     H
H     -0.275344  1.27534 -0.945537     H
H     -0.275304  1.15446 -0.69848     H
H     -0.275304  1.34554 -0.80152     H
H     -0.253635  1.13515 -0.962117     H
H     -0.253635  1.36485 -0.537883     H
C        -0.25  1.17982    -0.75     C
C        -0.25     1.25 -0.89414     C
C        -0.25     1.25 -0.60594     C
C        -0.25  1.32022    -0.75     C
H     -0.246365  1.13515 -0.537883     H
H     -0.226406  1.03354 0.124306     H
H     -0.226406  1.46646 -1.62431     H
H     -0.224696  1.15446 -0.80152     H
H     -0.224696  1.34554 -0.69848     H
H     -0.224656  1.22466 -0.945537     H
H     -0.224656  1.27534 -0.554463     H
H     -0.215897 0.933205 0.130067     H
H     -0.215897  1.56679 -1.63007     H
C     -0.2135713 1.2135713 -0.67634     C
C     -0.2135713 1.2864313 -0.82374     C
H     -0.210108  1.39719 -0.843548     H
C     -0.20284  1.14044 -0.53547     C
H     -0.193549  1.12091 -0.143348     H
H     -0.192267  1.08808 -0.272659     H
H     -0.191405  1.07873 -0.413602     H
H     -0.190398  1.03556 -0.00142766     H
H     -0.190398  1.46444 -1.49857     H
H     -0.18845 0.990522 0.284712     H
H     -0.18845  1.50948 -1.78471     H
C     -0.18667  1.03678 0.087314     C
C     -0.18667  1.46338 -1.587314     C
C     -0.18255  1.37704 -0.89948     C
H     -0.179889 0.935224 0.00433292     H
H     -0.179889  1.56478 -1.50433     H
C     -0.17982     1.25    -0.75     C
C     -0.1787816 1.1787816 -0.60204     C
C     -0.1787816 1.3212216 -0.89804     C
C     -0.17627  0.93747   0.0932     C
C     -0.17627  1.56267  -1.5932     C
C     -0.17234  1.10874 -0.46597     C
C     -0.17138  1.09291  -0.1952     C
H     -0.168412  1.05399 -0.154191     H
H     -0.167936  1.07455  0.11182     H
H     -0.167936  1.42545 -1.61182     H
H     -0.157258  1.45057 -0.972192     H
H     -0.154456   1.2247 -0.80152     H
H     -0.154456   1.2753 -0.69848     H
H     -0.153086  1.39895 -1.31808     H
C     -0.15247  0.99075 0.124611     C
C     -0.15247  1.50935 -1.624611     C
C     -0.15205  1.40704 -0.96999     C
H     -0.150107 0.905041 0.121639     H
H     -0.150107  1.59496 -1.62164     H
C     -0.14837 0.993511  0.24921     C
C     -0.14837 1.506511 -1.74921     C
C     -0.14044  1.29724 -0.96467     C
H     -0.135149  1.25363 -0.962117     H
H     -0.130023  1.03165 0.272986     H
H     -0.130023  1.46835 -1.77299     H
H     -0.123505  0.96032 0.278705     H
H     -0.123505  1.53968  -1.7787     H
C     -0.12304  1.18255 -0.60068     C
H     -0.120905  1.30645 -1.35665     H
C     -0.11602  1.11602 -0.46425     C
C     -0.11602  1.38402 -1.03585     C
C     -0.11492  1.11492 -0.21577     C
C     -0.11492  1.38512 -1.28437     C
C     -0.10874  1.32774 -1.03417     C
H     -0.102814  1.21011 -0.656452     H
H     -0.101048  1.15309 -0.181923     H
H     -0.0949586 0.849893 -0.121639     H
H     -0.0949586  1.65011 -1.37836     H
C     -0.09444  0.99574  0.07617     C
C     -0.09444  1.50434 -1.57617     C
C     -0.09304  1.15205 -0.53019     C
C     -0.09291  1.32878  -1.3052     C
O     -0.0900316  1.01262 -0.01854     O
O     -0.0900316  1.48742 -1.48154     O
H     -0.088079  1.30773 -1.22734     H
N     -0.0817916 1.0817916 -0.39574     N
N     -0.0817916 1.4182116 -1.10434     N
C     -0.0812018 1.0812018 -0.28364     C
C     -0.0812018 1.4188018 -1.21644     C
H     -0.078733   1.3086  -1.0864     H
H     -0.0745444 0.331949  1.38778     H
H     -0.0745444  1.16805 0.112219     H
H     -0.0667948 0.784103 -0.130067     H
H     -0.0667948   1.7159 -1.36993     H
H     -0.0647758 0.820111 -0.00433292     H
H     -0.0647758  1.67989 -1.49567     H
C     -0.06267  0.82387  -0.0932     C
C     -0.06267  1.67627  -1.4072     C
O     -0.05712  0.52152  1.36754     O
O     -0.05712  0.97852  0.13254     O
O     -0.05712  1.52152 -1.63254     O
H     -0.053985  1.33159 -1.34581     H
H     -0.0494329  1.15726 -0.527808     H
C     -0.04532  1.04532 -0.43007     C
C     -0.04532  1.45472 -1.07007     C
N     -0.0453116 1.0453116 -0.25044     N
N     -0.0453116 1.4546916 -1.24964     N
H     -0.0396796 0.876495 -0.278705     H
H     -0.0396796  1.62351  -1.2213     H
C     -0.03678  0.31347 1.412714     C
C     -0.03678  1.18667 0.087314     C
H     -0.0357575  1.03576 -0.514778     H
H     -0.0357575  1.46424 -0.985222     H
H     -0.0356876 0.309788  1.50147     H
H     -0.0356876  1.19021 -0.00146619     H
H     -0.0334141 0.273523  1.37605     H
H     -0.0334141  1.22648 0.123945     H
H     -0.0316527 0.369977  1.22701     H
H     -0.0316527  1.13002 0.272986     H
C     -0.02292  1.02292 -0.34177     C
C     -0.02292  1.47712 -1.15837     C
O     -0.02152  0.94292 -0.13254     O
O     -0.02152  1.55712 -1.36754     O
Cu    -0.020202 0.479802 1.591745    Cu
Cu    -0.020202 1.020202 -0.091745    Cu
Cu    -0.020202 1.479802 -1.408265    Cu
O     -0.01262 0.4099716  1.51854     O
O     -0.01262 1.0900316 -0.01854     O
O     -0.01262 1.4099716 -1.48154     O
H     -0.0094776  0.81155 -0.284712     H
H     -0.0094776  1.68845 -1.21529     H
C     -0.00935  0.84767 -0.124611     C
C     -0.00935  1.65247 -1.375411     C
H     -0.00813951  0.49186   1.1576     H
H     -0.00813951  1.00814 0.342395     H
C     -0.006511  0.85177 -0.24921     C
C     -0.006511  1.64837 -1.25081     C
C     -0.00434  0.90564 -0.07617     C
C     -0.00434  1.59444 -1.42397     C
C      0.00434  0.40564  1.42397     C
C      0.00434  1.09444  0.07617     C
C     0.006511  0.35177  1.25081     C
C     0.006511  1.14837  0.24921     C
H     0.00813951  0.99186 -0.342395     H
H     0.00813951  1.50814  -1.1576     H
C      0.00935  0.34767 1.375411     C
C      0.00935  1.15247 0.124611     C
H     0.0094776  0.31155  1.21529     H
H     0.0094776  1.18845 0.284712     H
O      0.01262 0.5900316  1.48154     O
O      0.01262 0.9099716  0.01854     O
O      0.01262 1.5900316 -1.51854     O
Cu    0.020202 0.520202 1.408265    Cu
Cu    0.020202 0.979802 0.091745    Cu
Cu    0.020202 1.520202 -1.591745    Cu
O      0.02152  0.44292  1.36754     O
O      0.02152  1.05712  0.13254     O
C      0.02292  0.52292  1.15837     C
C      0.02292  0.97712  0.34177     C
H     0.0316527 0.869977 -0.272986     H
H     0.0316527  1.63002 -1.22701     H
H     0.0334141 0.773523 -0.123945     H
H     0.0334141  1.72648 -1.37605     H
H     0.0356876 0.809788 0.00146619     H
H     0.0356876  1.69021 -1.50147     H
H     0.0357575 0.535758 0.985222     H
H     0.0357575 0.964242 0.514778     H
C      0.03678  0.81347 -0.087314     C
C      0.03678  1.68667 -1.412714     C
H     0.0396796 0.376495   1.2213     H
H     0.0396796  1.12351 0.278705     H
N     0.0453116 0.5453116  1.24964     N
N     0.0453116 0.9546916  0.25044     N
C      0.04532  0.54532  1.07007     C
C      0.04532  0.95472  0.43007     C
H     0.0494329 0.842742 0.527808     H
O      0.05712  0.47852  1.63254     O
O      0.05712  1.02152 -0.13254     O
O      0.05712  1.47852 -1.36754     O
C      0.06267  0.32387   1.4072     C
C      0.06267  1.17627   0.0932     C
H     0.0647758 0.320111  1.49567     H
H     0.0647758  1.17989 0.00433292     H
H     0.0667948 0.284103  1.36993     H
H     0.0667948   1.2159 0.130067     H
H     0.0745444 0.831949 -0.112219     H
H     0.0745444  1.66805 -1.38778     H
H     0.078733 0.691405   1.0864     H
C     0.0812018 0.5812018  1.21644     C
C     0.0812018 0.9188018  0.28364     C
N     0.0817916 0.5817916  1.10434     N
N     0.0817916 0.9182116  0.39574     N
O     0.0900316  0.51262  1.48154     O
O     0.0900316  0.98742  0.01854     O
C      0.09304  0.84805  0.53019     C
C      0.09444  0.49574  1.57617     C
C      0.09444  1.00434 -0.07617     C
H     0.0949586 0.349893  1.37836     H
H     0.0949586  1.15011 0.121639     H
H     0.101048 0.653086  1.31808     H
H     0.101048 0.846914 0.181923     H
H     0.102814 0.789892 0.656452     H
C      0.10874  0.67234  1.03417     C
C      0.11492  0.61492  1.28437     C
C      0.11492  0.88512  0.21577     C
C      0.11602  0.61602  1.03585     C
C      0.11602  0.88402  0.46425     C
C      0.12304  0.81755  0.60068     C
H     0.123505  0.46032   1.7787     H
H     0.123505  1.03968 -0.278705     H
H     0.130023 0.531653  1.77299     H
H     0.130023 0.968347 -0.272986     H
H     0.135149 0.746365 0.962117     H
C      0.14044  0.70284  0.96467     C
C      0.14837 0.493511  1.74921     C
C      0.14837 1.006511 -0.24921     C
H     0.150107 0.405041  1.62164     H
H     0.150107  1.09496 -0.121639     H
C      0.15205  0.59304  0.96999     C
C      0.15247  0.49075 1.624611     C
C      0.15247  1.00935 -0.124611     C
H     0.154456 0.724696  0.69848     H
H     0.154456 0.775304  0.80152     H
H     0.157258 0.549433 0.972192     H
H     0.167936 0.574551  1.61182     H
H     0.167936 0.925449 -0.11182     H
H     0.168412 0.553985  1.34581     H
H     0.168412 0.946015 0.154191     H
C      0.17138  0.59291   1.3052     C
C      0.17138  0.90711   0.1952     C
C      0.17234  0.89134  0.46597     C
C      0.17627  0.43747   1.5932     C
C      0.17627  1.06267  -0.0932     C
C     0.1787816 0.6787816  0.89804     C
C     0.1787816 0.8212216  0.60204     C
C      0.17982     0.75     0.75     C
H     0.179889 0.435224  1.50433     H
H     0.179889  1.06478 -0.00433292     H
C      0.18255  0.62304  0.89948     C
C      0.18667  0.53678 1.587314     C
C      0.18667  0.96338 -0.087314     C
H      0.18845 0.490522  1.78471     H
H      0.18845  1.00948 -0.284712     H
H     0.190398 0.535557  1.49857     H
H     0.190398 0.964443 0.00142766     H
H     0.191405 0.921267 0.413602     H
H     0.192267 0.588079  1.22734     H
H     0.192267 0.911921 0.272659     H
H     0.193549 0.620905  1.35665     H
H     0.193549 0.879095 0.143348     H
C      0.20284  0.85964  0.53547     C
H     0.210108 0.602814 0.843548     H
C     0.2135713 0.7135713  0.82374     C
C     0.2135713 0.7864313  0.67634     C
H     0.215897 0.433205  1.63007     H
H     0.215897  1.06679 -0.130067     H
H     0.224656 0.724656 0.554463     H
H     0.224656 0.775344 0.945537     H
H     0.224696 0.654456  0.69848     H
H     0.224696 0.845544  0.80152     H
H     0.226406 0.533538  1.62431     H
H     0.226406 0.966462 -0.124306     H
H     0.246365 0.864851 0.537883     H
C         0.25  0.67982     0.75     C
C         0.25     0.75  0.60594     C
C         0.25     0.75  0.89414     C
C         0.25  0.82022     0.75     C
H     0.253635 0.635149 0.537883     H
H     0.275304 0.654456  0.80152     H
H     0.275304 0.845544  0.69848     H
H     0.275344 0.724656 0.945537     H
H     0.275344 0.775344 0.554463     H
C     0.2864313 0.7135713  0.67634     C
C     0.2864313 0.7864313  0.82374     C
H     0.289892 0.897186 0.843548     H
C      0.29724  0.64044  0.53547     C
H     0.308595 0.578733 0.413602     H
C      0.31755  0.87704  0.89948     C
C      0.32022     0.75     0.75     C
C     0.3212216 0.6787816  0.60204     C
C     0.3212216 0.8212216  0.89804     C
C      0.32774  0.60874  0.46597     C
H     0.342742 0.950567 0.972192     H
H     0.345544 0.724696  0.80152     H
H     0.345544 0.775304  0.69848     H
H     0.346914 0.601048 0.181923     H
H     0.346914 0.898952  1.31808     H
C      0.34805  0.90704  0.96999     C
C      0.35964  0.79724  0.96467     C
H     0.364851 0.753635 0.962117     H
C      0.37704  0.68255  0.60068     C
H     0.379095 0.693549 0.143348     H
H     0.379095 0.806451  1.35665     H
C      0.38402  0.61602  0.46425     C
C      0.38402  0.88402  1.03585     C
C      0.38512  0.61492  0.21577     C
C      0.38512  0.88512  1.28437     C
C      0.39134  0.82774  1.03417     C
H     0.397186 0.710108 0.656452     H
H     0.405041 0.349893 0.121639     H
C      0.40704  0.65205  0.53019     C
C      0.40711  0.67138   0.1952     C
C      0.40711  0.82878   1.3052     C
O     0.4099716  0.98742  1.48154     O
H     0.411921 0.692267 0.272659     H
H     0.411921 0.807733  1.22734     H
N     0.4182116 0.5817916  0.39574     N
N     0.4182116 0.9182116  1.10434     N
C     0.4188018 0.5812018  0.28364     C
C     0.4188018 0.9188018  1.21644     C
H     0.421267 0.808595   1.0864     H
H     0.425449 0.832064  1.61182     H
H     0.433205 0.284103 0.130067     H
H     0.435224 0.320111 0.00433292     H
C      0.43747  0.32387   0.0932     C
H     0.446015 0.668412 0.154191     H
H     0.446015 0.831588  1.34581     H
H     0.450567 0.657258 0.527808     H
N     0.4546916 0.5453116  0.25044     N
N     0.4546916 0.9546916  1.24964     N
C      0.45472  0.54532  0.43007     C
C      0.45472  0.95472  1.07007     C
H      0.46032 0.376495 0.278705     H
C      0.46338  0.81347 1.587314     C
H     0.464242 0.535758 0.514778     H
H     0.464242 0.964242 0.985222     H
H     0.464443 0.809602  1.49857     H
H     0.466462 0.773594  1.62431     H
H     0.468347 0.869977  1.77299     H
C      0.47712  0.52292  0.34177     C
C      0.47712  0.97712  1.15837     C
O      0.47852  0.44292  0.13254     O
O      0.47852  1.05712  1.36754     O
Cu    0.479802 0.520202 0.091745    Cu
Cu    0.479802 0.979802 1.408265    Cu
O      0.48742 0.9099716  1.48154     O
H     0.490522  0.31155 0.284712     H
C      0.49075  0.34767 0.124611     C
C     0.493511  0.35177  0.24921     C
C      0.49574  0.40564  0.07617     C
C      0.50434  0.90564  1.57617     C
C     0.506511  0.85177  1.74921     C
H      0.50814  0.49186 0.342395     H
H      0.50814  1.00814   1.1576     H
C      0.50935  0.84767 1.624611     C
H     0.509478  0.81155  1.78471     H
Cu    0.520202 0.479802 -0.091745    Cu
Cu    0.520202 1.020202 1.591745    Cu
O      0.52152  0.94292  1.63254     O
H     0.531653 0.369977 0.272986     H
H     0.533538 0.273594 0.124306     H
H     0.535557 0.309602 -0.00142766     H
C      0.53678  0.31347 0.087314     C
H      0.53968 0.876495   1.7787     H
O      0.55712  0.52152  0.13254     O
O      0.55712  0.97852  1.36754     O
C      0.56267  0.82387   1.5932     C
H     0.564776 0.820111  1.50433     H
H     0.566795 0.784103  1.63007     H
H     0.574551 0.332064  0.11182     H
O     0.5900316  1.01262  1.51854     O
C      0.59444  0.50434  0.07617     C
C      0.59444  0.99574  1.42397     C
H     0.594959 0.849893  1.62164     H
H     0.623505  0.53968 0.278705     H
H     0.623505  0.96032   1.2213     H
H     0.630023 0.468347 0.272986     H
H     0.630023  1.03165  1.22701     H
C      0.64837 0.506511  0.24921     C
C      0.64837 0.993511  1.25081     C
H     0.650107 0.594959 0.121639     H
H     0.650107 0.905041  1.37836     H
C      0.65247  0.50935 0.124611     C
C      0.65247  0.99075 1.375411     C
H     0.667936  1.07455  1.38818     H
H     0.668051 0.425456 0.112219     H
C      0.67627  0.56267   0.0932     C
C      0.67627  0.93747   1.4072     C
H     0.679889 0.564776 0.00433292     H
H     0.679889 0.935224  1.49567     H
C      0.68667  0.46338 0.087314     C
C      0.68667  1.03678 1.412714     C
H      0.68845 0.509478 0.284712     H
H      0.68845 0.990522  1.21529     H
H     0.690212 0.464312 -0.00146619     H
H     0.690398  1.03556  1.50143     H
H     0.715897 0.566795 0.130067     H
H     0.715897 0.933205  1.36993     H
H     0.726406  1.03354  1.37569     H
H     0.726477 0.466586 0.123945     H
