data_I
_chemical_name_common  '/home/zhangsd/repos/MofS-CGCNN/ML/data/WS24/clean_cifs/SONVIB'
_cell_length_a 18.61380
_cell_length_b 18.61380
_cell_length_c 18.61380
_cell_angle_alpha 60.00000
_cell_angle_beta  60.00000
_cell_angle_gamma 60.00000
_space_group_name_H-M_alt      'P 1'


loop_
_space_group_symop_operation_xyz
  'x, y, z' 

loop_
_atom_site_label
_atom_site_fract_x
_atom_site_fract_y
_atom_site_fract_z
_atom_site_type_symbol
Cu         0.0  0.42984     -0.0    Cu
Cu         0.0  0.42984  0.57016    Cu
Cu         0.0  0.57016      0.0    Cu
Cu         0.0  0.57016  0.42984    Cu
O      0.02118  0.49246  0.61244     O
O      0.02118  0.49246  0.87392     O
O      0.02118  0.61244  0.49246     O
O      0.02118  0.61244  0.87392     O
O      0.02118  0.87392  0.49246     O
O      0.02118  0.87392  0.61244     O
C      0.02528   0.5691   0.5691     C
C      0.02528   0.5691  0.83652     C
C      0.02528  0.83652   0.5691     C
H       0.0317   0.5121   0.7281     H
H       0.0317   0.7281   0.5121     H
H       0.0317   0.7281   0.7281     H
C      0.03206  0.56954   0.6992     C
C      0.03206   0.6992  0.56954     C
C      0.03206   0.6992   0.6992     C
C      0.03228   0.6127   0.6127     C
C      0.03228   0.6127  0.74232     C
C      0.03228  0.74232   0.6127     C
O      0.12608  0.38756  0.50754     O
O      0.12608  0.38756  0.97882     O
O      0.12608  0.50754  0.38756     O
O      0.12608  0.50754  0.97882     O
O      0.12608  0.97882  0.38756     O
O      0.12608  0.97882  0.50754     O
C      0.16348   0.4309   0.4309     C
C      0.16348   0.4309  0.97472     C
C      0.16348  0.97472   0.4309     C
C      0.25768   0.3873   0.3873     C
C      0.25768   0.3873  0.96772     C
C      0.25768  0.96772   0.3873     C
H       0.2719   0.2719   0.4879     H
H       0.2719   0.2719   0.9683     H
H       0.2719   0.4879   0.2719     H
H       0.2719   0.4879   0.9683     H
H       0.2719   0.9683   0.2719     H
H       0.2719   0.9683   0.4879     H
C       0.3008   0.3008  0.43046     C
C       0.3008   0.3008  0.96794     C
C       0.3008  0.43046   0.3008     C
C       0.3008  0.43046  0.96794     C
C       0.3008  0.96794   0.3008     C
C       0.3008  0.96794  0.43046     C
C       0.3873  0.25768   0.3873     C
C       0.3873  0.25768  0.96772     C
C       0.3873   0.3873  0.25768     C
C       0.3873   0.3873  0.96772     C
C       0.3873  0.96772  0.25768     C
C       0.3873  0.96772   0.3873     C
O      0.38756  0.12608  0.50754     O
O      0.38756  0.12608  0.97882     O
O      0.38756  0.50754  0.12608     O
O      0.38756  0.50754  0.97882     O
O      0.38756  0.97882  0.12608     O
O      0.38756  0.97882  0.50754     O
Cu     0.42984  0.57016      0.0    Cu
Cu     0.42984      1.0      0.0    Cu
Cu     0.42984      1.0  0.57016    Cu
C      0.43046   0.3008   0.3008     C
C      0.43046   0.3008  0.96794     C
C      0.43046  0.96794   0.3008     C
C       0.4309  0.16348   0.4309     C
C       0.4309  0.16348  0.97472     C
C       0.4309   0.4309  0.16348     C
C       0.4309   0.4309  0.97472     C
C       0.4309  0.97472  0.16348     C
C       0.4309  0.97472   0.4309     C
H       0.4879   0.2719   0.2719     H
H       0.4879   0.2719   0.9683     H
H       0.4879   0.9683   0.2719     H
O      0.49246  0.02118  0.61244     O
O      0.49246  0.02118  0.87392     O
O      0.49246  0.61244  0.02118     O
O      0.49246  0.61244  0.87392     O
O      0.49246  0.87392  0.02118     O
O      0.49246  0.87392  0.61244     O
O      0.50754  0.12608  0.38756     O
O      0.50754  0.12608  0.97882     O
O      0.50754  0.38756  0.12608     O
O      0.50754  0.38756  0.97882     O
O      0.50754  0.97882  0.12608     O
O      0.50754  0.97882  0.38756     O
H       0.5121   0.0317   0.7281     H
H       0.5121   0.7281   0.0317     H
H       0.5121   0.7281   0.7281     H
C       0.5691  0.02528   0.5691     C
C       0.5691  0.02528  0.83652     C
C       0.5691   0.5691  0.02528     C
C       0.5691   0.5691  0.83652     C
C       0.5691  0.83652  0.02528     C
C       0.5691  0.83652   0.5691     C
C      0.56954  0.03206   0.6992     C
C      0.56954   0.6992  0.03206     C
C      0.56954   0.6992   0.6992     C
Cu     0.57016      0.0     -0.0    Cu
Cu     0.57016      0.0  0.42984    Cu
Cu     0.57016  0.42984      0.0    Cu
O      0.61244  0.02118  0.49246     O
O      0.61244  0.02118  0.87392     O
O      0.61244  0.49246  0.02118     O
O      0.61244  0.49246  0.87392     O
O      0.61244  0.87392  0.02118     O
O      0.61244  0.87392  0.49246     O
C       0.6127  0.03228   0.6127     C
C       0.6127  0.03228  0.74232     C
C       0.6127   0.6127  0.03228     C
C       0.6127   0.6127  0.74232     C
C       0.6127  0.74232  0.03228     C
C       0.6127  0.74232   0.6127     C
C       0.6992  0.03206  0.56954     C
C       0.6992  0.03206   0.6992     C
C       0.6992  0.56954  0.03206     C
C       0.6992  0.56954   0.6992     C
C       0.6992   0.6992  0.03206     C
C       0.6992   0.6992  0.56954     C
H       0.7281   0.0317   0.5121     H
H       0.7281   0.0317   0.7281     H
H       0.7281   0.5121   0.0317     H
H       0.7281   0.5121   0.7281     H
H       0.7281   0.7281   0.0317     H
H       0.7281   0.7281   0.5121     H
C      0.74232  0.03228   0.6127     C
C      0.74232   0.6127  0.03228     C
C      0.74232   0.6127   0.6127     C
C      0.83652  0.02528   0.5691     C
C      0.83652   0.5691  0.02528     C
C      0.83652   0.5691   0.5691     C
O      0.87392  0.02118  0.49246     O
O      0.87392  0.02118  0.61244     O
O      0.87392  0.49246  0.02118     O
O      0.87392  0.49246  0.61244     O
O      0.87392  0.61244  0.02118     O
O      0.87392  0.61244  0.49246     O
C      0.96772  0.25768   0.3873     C
C      0.96772   0.3873  0.25768     C
C      0.96772   0.3873   0.3873     C
C      0.96794   0.3008   0.3008     C
C      0.96794   0.3008  0.43046     C
C      0.96794  0.43046   0.3008     C
H       0.9683   0.2719   0.2719     H
H       0.9683   0.2719   0.4879     H
H       0.9683   0.4879   0.2719     H
C      0.97472  0.16348   0.4309     C
C      0.97472   0.4309  0.16348     C
C      0.97472   0.4309   0.4309     C
O      0.97882  0.12608  0.38756     O
O      0.97882  0.12608  0.50754     O
O      0.97882  0.38756  0.12608     O
O      0.97882  0.38756  0.50754     O
O      0.97882  0.50754  0.12608     O
O      0.97882  0.50754  0.38756     O
Cu         1.0      0.0  0.57016    Cu
Cu         1.0      1.0  0.42984    Cu
