data_I
_chemical_name_common  '/home/zhangsd/repos/MofS-CGCNN/ML/data/WS24/clean_cifs/SOQSAU01'
_cell_length_a 26.07000
_cell_length_b 26.07000
_cell_length_c 26.07000
_cell_angle_alpha 90.00000
_cell_angle_beta  90.00000
_cell_angle_gamma 90.00000
_space_group_name_H-M_alt      'P 1'


loop_
_space_group_symop_operation_xyz
  'x, y, z' 

loop_
_atom_site_label
_atom_site_fract_x
_atom_site_fract_y
_atom_site_fract_z
_atom_site_type_symbol
H       0.0036   0.1534   0.1981     H
H       0.0036   0.3466   0.6981     H
O      0.00735   0.5996  0.38052     O
O      0.00735   0.9004  0.88052     O
C      0.00749  0.14038  0.09655     C
C      0.00749  0.35962  0.59655     C
O       0.0103   0.2059  0.29844     O
O       0.0103   0.2941  0.79844     O
C       0.0115  0.18427    0.182     C
C       0.0115  0.31573    0.682     C
C      0.01545  0.18729  0.12892     C
C      0.01545  0.31271  0.62892     C
Zr     0.01568  0.51868  0.40791    Zr
Zr     0.01568  0.98132  0.90791    Zr
O      0.01579  0.14648  0.04883     O
O      0.01579  0.35352  0.54883     O
C       0.0178  0.23655  0.26683     C
C       0.0178  0.26345  0.76683     C
Zr     0.01868  0.09209  0.98432    Zr
Zr     0.01868  0.40791  0.48432    Zr
C       0.0197  0.22858  0.21013     C
C       0.0197  0.27142  0.71013     C
H       0.0241   0.1944   0.8507     H
H       0.0241   0.3056   0.3507     H
H        0.026   0.2361   0.0694     H
H        0.026   0.2639   0.5694     H
C       0.0264  0.23394  0.10499     C
C       0.0264  0.26606  0.60499     C
O      0.02869  0.54414  0.56235     O
O      0.02869  0.95586  0.06235     O
C       0.0288  0.20751  0.77421     C
C       0.0288  0.29249  0.27421     C
C       0.0297    0.179  0.81899     C
C       0.0297    0.321  0.31899     C
C        0.032  0.22515  0.68662     C
C        0.032  0.27485  0.18662     C
O      0.03554  0.04547  0.85524     O
O      0.03554  0.45453  0.35524     O
O      0.03656  0.11796  0.90569     O
O      0.03656  0.38204  0.40569     O
C      0.03699  0.09413  0.86273     C
C      0.03699  0.40587  0.36273     C
C       0.0374  0.18491  0.72659     C
C       0.0374  0.31509  0.22659     C
C       0.0381   0.2222  0.63451     C
C       0.0381   0.2778  0.13451     C
C      0.03907  0.12661  0.81512     C
C      0.03907  0.37339  0.31512     C
O      0.04414  0.56235  0.47131     O
O      0.04414  0.93765  0.97131     O
O      0.04547  0.64476  0.53554     O
O      0.04547  0.85524  0.03554     O
O      0.04717  0.04717  0.04717     O
O      0.04717  0.45283  0.54717     O
C       0.0473  0.10388  0.76798     C
C       0.0473  0.39612  0.26798     C
C       0.0486  0.13368  0.72344     C
C       0.0486  0.36632  0.22344     C
O      0.04883  0.01579  0.14648     O
O      0.04883  0.48421  0.64648     O
H       0.0496   0.1922    0.619     H
H       0.0496   0.3078    0.119     H
H        0.052   0.0686   0.7659     H
H        0.052   0.4314   0.2659     H
H       0.0571   0.1189   0.6921     H
H       0.0571   0.3811   0.1921     H
O      0.06235  0.02869  0.95586     O
O      0.06235  0.47131  0.45586     O
H       0.0686   0.7341    0.552     H
H       0.0686   0.7659    0.052     H
H       0.0694    0.026   0.2361     H
H       0.0694    0.474   0.7361     H
Zr     0.09209  0.51568  0.51868    Zr
Zr     0.09209  0.98432  0.01868    Zr
C      0.09413  0.63727  0.53699     C
C      0.09413  0.86273  0.03699     C
O      0.09431  0.53656  0.38204     O
O      0.09431  0.96344  0.88204     O
C      0.09655  0.00749  0.14038     C
C      0.09655  0.49251  0.64038     C
O       0.0996  0.11948  0.99265     O
O       0.0996  0.38052  0.49265     O
C      0.10388  0.73202   0.5473     C
C      0.10388  0.76798   0.0473     C
C      0.10499   0.0264  0.23394     C
C      0.10499   0.4736  0.73394     C
O      0.11796  0.59431  0.53656     O
O      0.11796  0.90569  0.03656     O
H       0.1189   0.6921   0.0571     H
H       0.1189   0.8079   0.5571     H
H        0.119   0.0496   0.3078     H
H        0.119   0.4504   0.8078     H
O      0.11948  0.50735   0.5996     O
O      0.11948  0.99265   0.0996     O
C      0.12661  0.68488  0.53907     C
C      0.12661  0.81512  0.03907     C
C      0.12892  0.01545  0.18729     C
C      0.12892  0.48455  0.68729     C
C      0.13368  0.72344   0.0486     C
C      0.13368  0.77656   0.5486     C
C      0.13451   0.0381   0.2778     C
C      0.13451   0.4619   0.7778     C
C      0.13727  0.53699  0.40587     C
C      0.13727  0.96301  0.90587     C
C      0.14038  0.09655  0.00749     C
C      0.14038  0.40345  0.50749     C
O      0.14476  0.53554  0.45453     O
O      0.14476  0.96446  0.95453     O
O      0.14648  0.04883  0.01579     O
O      0.14648  0.45117  0.51579     O
H       0.1493   0.5241   0.3056     H
H       0.1493   0.9759   0.8056     H
H       0.1534   0.1981   0.0036     H
H       0.1534   0.3019   0.5036     H
C        0.179  0.68101   0.5297     C
C        0.179  0.81899   0.0297     C
C      0.18101   0.5297    0.321     C
C      0.18101   0.9703    0.821     C
C        0.182   0.0115  0.18427     C
C        0.182   0.4885  0.68427     C
C      0.18427    0.182   0.0115     C
C      0.18427    0.318   0.5115     C
C      0.18488  0.53907  0.37339     C
C      0.18488  0.96093  0.87339     C
C      0.18491  0.72659   0.0374     C
C      0.18491  0.77341   0.5374     C
C      0.18662    0.032  0.27485     C
C      0.18662    0.468  0.77485     C
C      0.18729  0.12892  0.01545     C
C      0.18729  0.37108  0.51545     C
H       0.1921   0.0571   0.3811     H
H       0.1921   0.4429   0.8811     H
H       0.1922    0.619   0.0496     H
H       0.1922    0.881   0.5496     H
H       0.1944   0.6493   0.5241     H
H       0.1944   0.8507   0.0241     H
H       0.1981   0.0036   0.1534     H
H       0.1981   0.4964   0.6534     H
O      0.20156   0.5103   0.2059     O
O      0.20156   0.9897   0.7059     O
O       0.2059  0.20156   0.5103     O
O       0.2059  0.29844   0.0103     O
C      0.20751  0.72579   0.5288     C
C      0.20751  0.77421   0.0288     C
C      0.21013   0.0197  0.22858     C
C      0.21013   0.4803  0.72858     C
C       0.2222  0.63451   0.0381     C
C       0.2222  0.86549   0.5381     C
C      0.22344   0.0486  0.36632     C
C      0.22344   0.4514  0.86632     C
C      0.22515  0.68662    0.032     C
C      0.22515  0.81338    0.532     C
C      0.22579   0.5288  0.29249     C
C      0.22579   0.9712  0.79249     C
C      0.22659   0.0374  0.31509     C
C      0.22659   0.4626  0.81509     C
C      0.22858  0.21013   0.0197     C
C      0.22858  0.28987   0.5197     C
C      0.23202   0.5473  0.39612     C
C      0.23202   0.9527  0.89612     C
C      0.23317   0.5178  0.23655     C
C      0.23317   0.9822  0.73655     C
C      0.23394  0.10499   0.0264     C
C      0.23394  0.39501   0.5264     C
H       0.2341    0.552   0.4314     H
H       0.2341    0.948   0.9314     H
H       0.2361   0.0694    0.026     H
H       0.2361   0.4306    0.526     H
C      0.23655  0.23317   0.5178     C
C      0.23655  0.26683   0.0178     C
C      0.26345  0.73317   0.5178     C
C      0.26345  0.76683   0.0178     C
H       0.2639   0.5694    0.026     H
H       0.2639   0.9306    0.526     H
H       0.2659    0.052   0.4314     H
H       0.2659    0.448   0.9314     H
C      0.26606  0.60499   0.0264     C
C      0.26606  0.89501   0.5264     C
C      0.26683   0.0178  0.23655     C
C      0.26683   0.4822  0.73655     C
C      0.26798   0.0473  0.39612     C
C      0.26798   0.4527  0.89612     C
C      0.27142  0.71013   0.0197     C
C      0.27142  0.78987   0.5197     C
C      0.27341   0.5374  0.31509     C
C      0.27341   0.9626  0.81509     C
C      0.27421   0.0288  0.29249     C
C      0.27421   0.4712  0.79249     C
C      0.27485  0.18662    0.032     C
C      0.27485  0.31338    0.532     C
C      0.27656   0.5486  0.36632     C
C      0.27656   0.9514  0.86632     C
C       0.2778  0.13451   0.0381     C
C       0.2778  0.36549   0.5381     C
C      0.28987   0.5197  0.22858     C
C      0.28987   0.9803  0.72858     C
C      0.29249  0.22579   0.5288     C
C      0.29249  0.27421   0.0288     C
O       0.2941  0.70156   0.5103     O
O       0.2941  0.79844   0.0103     O
O      0.29844   0.0103   0.2059     O
O      0.29844   0.4897   0.7059     O
H       0.3019   0.5036   0.1534     H
H       0.3019   0.9964   0.6534     H
H       0.3056   0.1493   0.5241     H
H       0.3056   0.3507   0.0241     H
H       0.3078    0.119   0.0496     H
H       0.3078    0.381   0.5496     H
H       0.3079   0.5571   0.3811     H
H       0.3079   0.9429   0.8811     H
C      0.31271  0.62892  0.01545     C
C      0.31271  0.87108  0.51545     C
C      0.31338    0.532  0.27485     C
C      0.31338    0.968  0.77485     C
C      0.31509  0.22659   0.0374     C
C      0.31509  0.27341   0.5374     C
C      0.31512  0.03907  0.37339     C
C      0.31512  0.46093  0.87339     C
C      0.31573    0.682   0.0115     C
C      0.31573    0.818   0.5115     C
C        0.318   0.5115  0.18427     C
C        0.318   0.9885  0.68427     C
C      0.31899   0.0297    0.321     C
C      0.31899   0.4703    0.821     C
C        0.321  0.18101   0.5297     C
C        0.321  0.31899   0.0297     C
H       0.3466   0.6981   0.0036     H
H       0.3466   0.8019   0.5036     H
H       0.3507   0.0241   0.3056     H
H       0.3507   0.4759   0.8056     H
O      0.35352  0.54883  0.01579     O
O      0.35352  0.95117  0.51579     O
O      0.35524  0.03554  0.45453     O
O      0.35524  0.46446  0.95453     O
C      0.35962  0.59655  0.00749     C
C      0.35962  0.90345  0.50749     C
C      0.36273  0.03699  0.40587     C
C      0.36273  0.46301  0.90587     C
C      0.36549   0.5381   0.2778     C
C      0.36549   0.9619   0.7778     C
C      0.36632  0.22344   0.0486     C
C      0.36632  0.27656   0.5486     C
C      0.37108  0.51545  0.18729     C
C      0.37108  0.98455  0.68729     C
C      0.37339  0.18488  0.53907     C
C      0.37339  0.31512  0.03907     C
O      0.38052  0.00735   0.5996     O
O      0.38052  0.49265   0.0996     O
H        0.381   0.5496   0.3078     H
H        0.381   0.9504   0.8078     H
H       0.3811   0.1921   0.0571     H
H       0.3811   0.3079   0.5571     H
O      0.38204  0.09431  0.53656     O
O      0.38204  0.40569  0.03656     O
C      0.39501   0.5264  0.23394     C
C      0.39501   0.9736  0.73394     C
C      0.39612  0.23202   0.5473     C
C      0.39612  0.26798   0.0473     C
O       0.4004  0.61948  0.99265     O
O       0.4004  0.88052  0.49265     O
C      0.40345  0.50749  0.14038     C
C      0.40345  0.99251  0.64038     C
O      0.40569  0.03656  0.38204     O
O      0.40569  0.46344  0.88204     O
C      0.40587  0.13727  0.53699     C
C      0.40587  0.36273  0.03699     C
Zr     0.40791  0.01568  0.51868    Zr
Zr     0.40791  0.48432  0.01868    Zr
H       0.4306    0.526   0.2361     H
H       0.4306    0.974   0.7361     H
H       0.4314   0.2341    0.552     H
H       0.4314   0.2659    0.052     H
O      0.43765  0.52869  0.95586     O
O      0.43765  0.97131  0.45586     O
H       0.4429   0.6189   0.6921     H
H       0.4429   0.8811   0.1921     H
H        0.448   0.5686   0.7659     H
H        0.448   0.9314   0.2659     H
H       0.4504   0.6922    0.619     H
H       0.4504   0.8078    0.119     H
O      0.45117  0.51579  0.14648     O
O      0.45117  0.98421  0.64648     O
C       0.4514  0.63368  0.72344     C
C       0.4514  0.86632  0.22344     C
C       0.4527  0.60388  0.76798     C
C       0.4527  0.89612  0.26798     C
O      0.45283  0.54717  0.04717     O
O      0.45283  0.95283  0.54717     O
O      0.45453  0.14476  0.53554     O
O      0.45453  0.35524  0.03554     O
O      0.45586  0.06235  0.47131     O
O      0.45586  0.43765  0.97131     O
C      0.46093  0.62661  0.81512     C
C      0.46093  0.87339  0.31512     C
C       0.4619   0.7222  0.63451     C
C       0.4619   0.7778  0.13451     C
C       0.4626  0.68491  0.72659     C
C       0.4626  0.81509  0.22659     C
C      0.46301  0.59413  0.86273     C
C      0.46301  0.90587  0.36273     C
O      0.46344  0.61796  0.90569     O
O      0.46344  0.88204  0.40569     O
O      0.46446  0.54547  0.85524     O
O      0.46446  0.95453  0.35524     O
C        0.468  0.72515  0.68662     C
C        0.468  0.77485  0.18662     C
C       0.4703    0.679  0.81899     C
C       0.4703    0.821  0.31899     C
C       0.4712  0.70751  0.77421     C
C       0.4712  0.79249  0.27421     C
O      0.47131  0.04414  0.56235     O
O      0.47131  0.45586  0.06235     O
C       0.4736  0.73394  0.10499     C
C       0.4736  0.76606  0.60499     C
H        0.474   0.7361   0.0694     H
H        0.474   0.7639   0.5694     H
H       0.4759   0.6944   0.8507     H
H       0.4759   0.8056   0.3507     H
C       0.4803  0.72858  0.21013     C
C       0.4803  0.77142  0.71013     C
Zr     0.48132  0.59209  0.98432    Zr
Zr     0.48132  0.90791  0.48432    Zr
C       0.4822  0.73655  0.26683     C
C       0.4822  0.76345  0.76683     C
O      0.48421  0.64648  0.04883     O
O      0.48421  0.85352  0.54883     O
Zr     0.48432  0.01868  0.40791    Zr
Zr     0.48432  0.48132  0.90791    Zr
C      0.48455  0.68729  0.12892     C
C      0.48455  0.81271  0.62892     C
C       0.4885  0.68427    0.182     C
C       0.4885  0.81573    0.682     C
O       0.4897   0.7059  0.29844     O
O       0.4897   0.7941  0.79844     O
C      0.49251  0.64038  0.09655     C
C      0.49251  0.85962  0.59655     C
O      0.49265   0.0996  0.38052     O
O      0.49265   0.4004  0.88052     O
H       0.4964   0.6534   0.1981     H
H       0.4964   0.8466   0.6981     H
H       0.5036   0.1534   0.3019     H
H       0.5036   0.3466   0.8019     H
O      0.50735   0.5996  0.11948     O
O      0.50735   0.9004  0.61948     O
C      0.50749  0.14038  0.40345     C
C      0.50749  0.35962  0.90345     C
O       0.5103   0.2059  0.20156     O
O       0.5103   0.2941  0.70156     O
C       0.5115  0.18427    0.318     C
C       0.5115  0.31573    0.818     C
C      0.51545  0.18729  0.37108     C
C      0.51545  0.31271  0.87108     C
Zr     0.51568  0.51868  0.09209    Zr
Zr     0.51568  0.98132  0.59209    Zr
O      0.51579  0.14648  0.45117     O
O      0.51579  0.35352  0.95117     O
C       0.5178  0.23655  0.23317     C
C       0.5178  0.26345  0.73317     C
Zr     0.51868  0.09209  0.51568    Zr
Zr     0.51868  0.40791  0.01568    Zr
C       0.5197  0.22858  0.28987     C
C       0.5197  0.27142  0.78987     C
H       0.5241   0.1944   0.6493     H
H       0.5241   0.3056   0.1493     H
H        0.526   0.2361   0.4306     H
H        0.526   0.2639   0.9306     H
C       0.5264  0.23394  0.39501     C
C       0.5264  0.26606  0.89501     C
O      0.52869  0.54414  0.93765     O
O      0.52869  0.95586  0.43765     O
C       0.5288  0.20751  0.72579     C
C       0.5288  0.29249  0.22579     C
C       0.5297    0.179  0.68101     C
C       0.5297    0.321  0.18101     C
C        0.532  0.22515  0.81338     C
C        0.532  0.27485  0.31338     C
O      0.53554  0.04547  0.64476     O
O      0.53554  0.45453  0.14476     O
O      0.53656  0.11796  0.59431     O
O      0.53656  0.38204  0.09431     O
C      0.53699  0.09413  0.63727     C
C      0.53699  0.40587  0.13727     C
C       0.5374  0.18491  0.77341     C
C       0.5374  0.31509  0.27341     C
C       0.5381   0.2222  0.86549     C
C       0.5381   0.2778  0.36549     C
C      0.53907  0.12661  0.68488     C
C      0.53907  0.37339  0.18488     C
O      0.54414  0.56235  0.02869     O
O      0.54414  0.93765  0.52869     O
O      0.54547  0.64476  0.96446     O
O      0.54547  0.85524  0.46446     O
O      0.54717  0.04717  0.45283     O
O      0.54717  0.45283  0.95283     O
C       0.5473  0.10388  0.73202     C
C       0.5473  0.39612  0.23202     C
C       0.5486  0.13368  0.77656     C
C       0.5486  0.36632  0.27656     C
O      0.54883  0.01579  0.35352     O
O      0.54883  0.48421  0.85352     O
H       0.5496   0.1922    0.881     H
H       0.5496   0.3078    0.381     H
H        0.552   0.0686   0.7341     H
H        0.552   0.4314   0.2341     H
H       0.5571   0.1189   0.8079     H
H       0.5571   0.3811   0.3079     H
O      0.56235  0.02869  0.54414     O
O      0.56235  0.47131  0.04414     O
H       0.5686   0.7341    0.948     H
H       0.5686   0.7659    0.448     H
H       0.5694    0.026   0.2639     H
H       0.5694    0.474   0.7639     H
Zr     0.59209  0.51568  0.98132    Zr
Zr     0.59209  0.98432  0.48132    Zr
C      0.59413  0.63727  0.96301     C
C      0.59413  0.86273  0.46301     C
O      0.59431  0.53656  0.11796     O
O      0.59431  0.96344  0.61796     O
C      0.59655  0.00749  0.35962     C
C      0.59655  0.49251  0.85962     C
O       0.5996  0.11948  0.50735     O
O       0.5996  0.38052  0.00735     O
C      0.60388  0.73202   0.9527     C
C      0.60388  0.76798   0.4527     C
C      0.60499   0.0264  0.26606     C
C      0.60499   0.4736  0.76606     C
O      0.61796  0.59431  0.96344     O
O      0.61796  0.90569  0.46344     O
H       0.6189   0.6921   0.4429     H
H       0.6189   0.8079   0.9429     H
H        0.619   0.0496   0.1922     H
H        0.619   0.4504   0.6922     H
O      0.61948  0.50735   0.9004     O
O      0.61948  0.99265   0.4004     O
C      0.62661  0.68488  0.96093     C
C      0.62661  0.81512  0.46093     C
C      0.62892  0.01545  0.31271     C
C      0.62892  0.48455  0.81271     C
C      0.63368  0.72344   0.4514     C
C      0.63368  0.77656   0.9514     C
C      0.63451   0.0381   0.2222     C
C      0.63451   0.4619   0.7222     C
C      0.63727  0.53699  0.09413     C
C      0.63727  0.96301  0.59413     C
C      0.64038  0.09655  0.49251     C
C      0.64038  0.40345  0.99251     C
O      0.64476  0.53554  0.04547     O
O      0.64476  0.96446  0.54547     O
O      0.64648  0.04883  0.48421     O
O      0.64648  0.45117  0.98421     O
H       0.6493   0.5241   0.1944     H
H       0.6493   0.9759   0.6944     H
H       0.6534   0.1981   0.4964     H
H       0.6534   0.3019   0.9964     H
C        0.679  0.68101   0.9703     C
C        0.679  0.81899   0.4703     C
C      0.68101   0.5297    0.179     C
C      0.68101   0.9703    0.679     C
C        0.682   0.0115  0.31573     C
C        0.682   0.4885  0.81573     C
C      0.68427    0.182   0.4885     C
C      0.68427    0.318   0.9885     C
C      0.68488  0.53907  0.12661     C
C      0.68488  0.96093  0.62661     C
C      0.68491  0.72659   0.4626     C
C      0.68491  0.77341   0.9626     C
C      0.68662    0.032  0.22515     C
C      0.68662    0.468  0.72515     C
C      0.68729  0.12892  0.48455     C
C      0.68729  0.37108  0.98455     C
H       0.6921   0.0571   0.1189     H
H       0.6921   0.4429   0.6189     H
H       0.6922    0.619   0.4504     H
H       0.6922    0.881   0.9504     H
H       0.6944   0.6493   0.9759     H
H       0.6944   0.8507   0.4759     H
H       0.6981   0.0036   0.3466     H
H       0.6981   0.4964   0.8466     H
O      0.70156   0.5103   0.2941     O
O      0.70156   0.9897   0.7941     O
O       0.7059  0.20156   0.9897     O
O       0.7059  0.29844   0.4897     O
C      0.70751  0.72579   0.9712     C
C      0.70751  0.77421   0.4712     C
C      0.71013   0.0197  0.27142     C
C      0.71013   0.4803  0.77142     C
C       0.7222  0.63451   0.4619     C
C       0.7222  0.86549   0.9619     C
C      0.72344   0.0486  0.13368     C
C      0.72344   0.4514  0.63368     C
C      0.72515  0.68662    0.468     C
C      0.72515  0.81338    0.968     C
C      0.72579   0.5288  0.20751     C
C      0.72579   0.9712  0.70751     C
C      0.72659   0.0374  0.18491     C
C      0.72659   0.4626  0.68491     C
C      0.72858  0.21013   0.4803     C
C      0.72858  0.28987   0.9803     C
C      0.73202   0.5473  0.10388     C
C      0.73202   0.9527  0.60388     C
C      0.73317   0.5178  0.26345     C
C      0.73317   0.9822  0.76345     C
C      0.73394  0.10499   0.4736     C
C      0.73394  0.39501   0.9736     C
H       0.7341    0.552   0.0686     H
H       0.7341    0.948   0.5686     H
H       0.7361   0.0694    0.474     H
H       0.7361   0.4306    0.974     H
C      0.73655  0.23317   0.9822     C
C      0.73655  0.26683   0.4822     C
C      0.76345  0.73317   0.9822     C
C      0.76345  0.76683   0.4822     C
H       0.7639   0.5694    0.474     H
H       0.7639   0.9306    0.974     H
H       0.7659    0.052   0.0686     H
H       0.7659    0.448   0.5686     H
C      0.76606  0.60499   0.4736     C
C      0.76606  0.89501   0.9736     C
C      0.76683   0.0178  0.26345     C
C      0.76683   0.4822  0.76345     C
C      0.76798   0.0473  0.10388     C
C      0.76798   0.4527  0.60388     C
C      0.77142  0.71013   0.4803     C
C      0.77142  0.78987   0.9803     C
C      0.77341   0.5374  0.18491     C
C      0.77341   0.9626  0.68491     C
C      0.77421   0.0288  0.20751     C
C      0.77421   0.4712  0.70751     C
C      0.77485  0.18662    0.468     C
C      0.77485  0.31338    0.968     C
C      0.77656   0.5486  0.13368     C
C      0.77656   0.9514  0.63368     C
C       0.7778  0.13451   0.4619     C
C       0.7778  0.36549   0.9619     C
C      0.78987   0.5197  0.27142     C
C      0.78987   0.9803  0.77142     C
C      0.79249  0.22579   0.9712     C
C      0.79249  0.27421   0.4712     C
O       0.7941  0.70156   0.9897     O
O       0.7941  0.79844   0.4897     O
O      0.79844   0.0103   0.2941     O
O      0.79844   0.4897   0.7941     O
H       0.8019   0.5036   0.3466     H
H       0.8019   0.9964   0.8466     H
H       0.8056   0.1493   0.9759     H
H       0.8056   0.3507   0.4759     H
H       0.8078    0.119   0.4504     H
H       0.8078    0.381   0.9504     H
H       0.8079   0.5571   0.1189     H
H       0.8079   0.9429   0.6189     H
C      0.81271  0.62892  0.48455     C
C      0.81271  0.87108  0.98455     C
C      0.81338    0.532  0.22515     C
C      0.81338    0.968  0.72515     C
C      0.81509  0.22659   0.4626     C
C      0.81509  0.27341   0.9626     C
C      0.81512  0.03907  0.12661     C
C      0.81512  0.46093  0.62661     C
C      0.81573    0.682   0.4885     C
C      0.81573    0.818   0.9885     C
C        0.818   0.5115  0.31573     C
C        0.818   0.9885  0.81573     C
C      0.81899   0.0297    0.179     C
C      0.81899   0.4703    0.679     C
C        0.821  0.18101   0.9703     C
C        0.821  0.31899   0.4703     C
H       0.8466   0.6981   0.4964     H
H       0.8466   0.8019   0.9964     H
H       0.8507   0.0241   0.1944     H
H       0.8507   0.4759   0.6944     H
O      0.85352  0.54883  0.48421     O
O      0.85352  0.95117  0.98421     O
O      0.85524  0.03554  0.04547     O
O      0.85524  0.46446  0.54547     O
C      0.85962  0.59655  0.49251     C
C      0.85962  0.90345  0.99251     C
C      0.86273  0.03699  0.09413     C
C      0.86273  0.46301  0.59413     C
C      0.86549   0.5381   0.2222     C
C      0.86549   0.9619   0.7222     C
C      0.86632  0.22344   0.4514     C
C      0.86632  0.27656   0.9514     C
C      0.87108  0.51545  0.31271     C
C      0.87108  0.98455  0.81271     C
C      0.87339  0.18488  0.96093     C
C      0.87339  0.31512  0.46093     C
O      0.88052  0.00735   0.9004     O
O      0.88052  0.49265   0.4004     O
H        0.881   0.5496   0.1922     H
H        0.881   0.9504   0.6922     H
H       0.8811   0.1921   0.4429     H
H       0.8811   0.3079   0.9429     H
O      0.88204  0.09431  0.96344     O
O      0.88204  0.40569  0.46344     O
C      0.89501   0.5264  0.26606     C
C      0.89501   0.9736  0.76606     C
C      0.89612  0.23202   0.9527     C
C      0.89612  0.26798   0.4527     C
O       0.9004  0.61948  0.50735     O
O       0.9004  0.88052  0.00735     O
C      0.90345  0.50749  0.35962     C
C      0.90345  0.99251  0.85962     C
O      0.90569  0.03656  0.11796     O
O      0.90569  0.46344  0.61796     O
C      0.90587  0.13727  0.96301     C
C      0.90587  0.36273  0.46301     C
Zr     0.90791  0.01568  0.98132    Zr
Zr     0.90791  0.48432  0.48132    Zr
H       0.9306    0.526   0.2639     H
H       0.9306    0.974   0.7639     H
H       0.9314   0.2341    0.948     H
H       0.9314   0.2659    0.448     H
O      0.93765  0.52869  0.54414     O
O      0.93765  0.97131  0.04414     O
H       0.9429   0.6189   0.8079     H
H       0.9429   0.8811   0.3079     H
H        0.948   0.5686   0.7341     H
H        0.948   0.9314   0.2341     H
H       0.9504   0.6922    0.881     H
H       0.9504   0.8078    0.381     H
O      0.95117  0.51579  0.35352     O
O      0.95117  0.98421  0.85352     O
C       0.9514  0.63368  0.77656     C
C       0.9514  0.86632  0.27656     C
C       0.9527  0.60388  0.73202     C
C       0.9527  0.89612  0.23202     C
O      0.95283  0.54717  0.45283     O
O      0.95283  0.95283  0.95283     O
O      0.95453  0.14476  0.96446     O
O      0.95453  0.35524  0.46446     O
O      0.95586  0.06235  0.02869     O
O      0.95586  0.43765  0.52869     O
C      0.96093  0.62661  0.68488     C
C      0.96093  0.87339  0.18488     C
C       0.9619   0.7222  0.86549     C
C       0.9619   0.7778  0.36549     C
C       0.9626  0.68491  0.77341     C
C       0.9626  0.81509  0.27341     C
C      0.96301  0.59413  0.63727     C
C      0.96301  0.90587  0.13727     C
O      0.96344  0.61796  0.59431     O
O      0.96344  0.88204  0.09431     O
O      0.96446  0.54547  0.64476     O
O      0.96446  0.95453  0.14476     O
C        0.968  0.72515  0.81338     C
C        0.968  0.77485  0.31338     C
C       0.9703    0.679  0.68101     C
C       0.9703    0.821  0.18101     C
C       0.9712  0.70751  0.72579     C
C       0.9712  0.79249  0.22579     C
O      0.97131  0.04414  0.93765     O
O      0.97131  0.45586  0.43765     O
C       0.9736  0.73394  0.39501     C
C       0.9736  0.76606  0.89501     C
H        0.974   0.7361   0.4306     H
H        0.974   0.7639   0.9306     H
H       0.9759   0.6944   0.6493     H
H       0.9759   0.8056   0.1493     H
C       0.9803  0.72858  0.28987     C
C       0.9803  0.77142  0.78987     C
Zr     0.98132  0.59209  0.51568    Zr
Zr     0.98132  0.90791  0.01568    Zr
C       0.9822  0.73655  0.23317     C
C       0.9822  0.76345  0.73317     C
O      0.98421  0.64648  0.45117     O
O      0.98421  0.85352  0.95117     O
Zr     0.98432  0.01868  0.09209    Zr
Zr     0.98432  0.48132  0.59209    Zr
C      0.98455  0.68729  0.37108     C
C      0.98455  0.81271  0.87108     C
C       0.9885  0.68427    0.318     C
C       0.9885  0.81573    0.818     C
O       0.9897   0.7059  0.20156     O
O       0.9897   0.7941  0.70156     O
C      0.99251  0.64038  0.40345     C
C      0.99251  0.85962  0.90345     C
O      0.99265   0.0996  0.11948     O
O      0.99265   0.4004  0.61948     O
H       0.9964   0.6534   0.3019     H
H       0.9964   0.8466   0.8019     H
