data_I
_chemical_name_common  '/home/zhangsd/repos/MofS-CGCNN/ML/data/WS24/clean_cifs/SOSFUD'
_cell_length_a 17.39000
_cell_length_b 18.84600
_cell_length_c 25.33900
_cell_angle_alpha 90.00000
_cell_angle_beta  90.00000
_cell_angle_gamma 102.08200
_space_group_name_H-M_alt      'P 1'


loop_
_space_group_symop_operation_xyz
  'x, y, z' 

loop_
_atom_site_label
_atom_site_fract_x
_atom_site_fract_y
_atom_site_fract_z
_atom_site_type_symbol
H       0.0008   0.0235   0.0458     H
H       0.0027    0.467   0.5583     H
H       0.0046   0.6786   0.0854     H
H       0.0058   0.3853   0.7256     H
H       0.0059   0.5363   0.4851     H
P       0.0068  0.56985   0.3287     P
H       0.0079   0.4638   0.6588     H
C       0.0082   0.9094   0.3784     C
H       0.0096   0.5609    0.045     H
C       0.0106   0.9428   0.4768     C
C       0.0118   0.3254   0.0518     C
C       0.0119   0.7246   0.5547     C
H       0.0121   0.8647   0.0698     H
C        0.017     0.86   0.0323     C
Zn      0.0172  0.18925  0.91897    Zn
H       0.0218   0.0178   0.3689     H
H       0.0223   0.9597   0.5528     H
H       0.0225   0.7434   0.5196     H
H       0.0248   0.4392   0.2289     H
H       0.0251   0.9368    0.969     H
H       0.0322   0.7618   0.5799     H
N       0.0353   0.2344   0.9924     N
C       0.0357   0.5494   0.0763     C
H       0.0366   0.6841   0.5597     H
C       0.0375   0.9932   0.0383     C
C       0.0394   0.3803   0.1641     C
O       0.0409   0.5709   0.3837     O
C       0.0419   0.8991   0.6858     C
C        0.044   0.9117   0.4327     C
P       0.0451  0.11565  0.71239     P
C       0.0457   0.9422    0.524     C
Zn     0.04698   0.7209  0.27685    Zn
H       0.0473   0.8462   0.2093     H
H       0.0473   0.8998    0.353     H
H       0.0475   0.8777   0.6521     H
C       0.0481   0.5012   0.5503     C
C       0.0488   0.3937   0.7029     C
C       0.0502   0.5424   0.5066     C
C       0.0504   0.4414   0.6628     C
H       0.0512   0.3187   0.3542     H
C       0.0523   0.3698   0.3531     C
H       0.0537   0.9743   0.0707     H
H       0.0551   0.5355   0.8471     H
O        0.056   0.5417   0.2868     O
C        0.057    0.488   0.8606     C
O       0.0577   0.0248    0.867     O
O       0.0592   0.0972   0.6514     O
C       0.0599   0.6862   0.0781     C
C       0.0626   0.4283   0.2062     C
H       0.0646   0.9501   0.6846     H
H       0.0653   0.5132   0.0682     H
H       0.0657   0.3878   0.3182     H
H       0.0683   0.8764   0.7122     H
H       0.0685    0.693   0.0408     H
H       0.0695   0.8551   0.0239     H
C       0.0724   0.1869   0.5903     C
C       0.0728    0.315   0.0848     C
O       0.0763   0.0601   0.7447     O
H       0.0821   0.4934   0.8946     H
H       0.0826   0.0213   0.0206     H
H       0.0864   0.4645   0.8369     H
H       0.0865   0.6171   0.1353     H
H       0.0871   0.7286   0.0965     H
O       0.0904   0.1932   0.7213     O
H       0.0908   0.3945   0.3777     H
C       0.0918   0.2228   0.0225     C
C       0.0918   0.6184   0.0968     C
Zn     0.09298  0.27603  0.76429    Zn
H       0.0946   0.2752   0.5354     H
C       0.0982   0.3636   0.1309     C
O       0.1029   0.7916   0.3256     O
C       0.1069   0.1469   0.6185     C
N        0.107   0.3582   0.7112     N
O       0.1097   0.7047   0.2185     O
C       0.1102   0.4579   0.6287     C
C       0.1118   0.9182   0.5325     C
C       0.1122   0.2615   0.0705     C
C        0.113   0.5091   0.5837     C
C       0.1132   0.8916   0.4435     C
N       0.1136   0.5912   0.4933     N
C       0.1165   0.2421   0.5544     C
O       0.1195   0.7388   0.4148     O
H       0.1199   0.1881   0.0125     H
Zn     0.12305  0.63791   0.4194    Zn
O       0.1237   0.2028   0.8998     O
H       0.1252   0.9076   0.8208     H
Zn     0.12771  0.06674  0.81219    Zn
H       0.1325   0.9198   0.5665     H
H       0.1382   0.9738    0.245     H
N       0.1395   0.4592   0.2142     N
H       0.1417   0.9198   0.2916     H
H       0.1455   0.3754    0.958     H
C       0.1485    0.892   0.4928     C
H       0.1488   0.0027   0.3031     H
H       0.1488   0.9098   0.1149     H
H       0.1516   0.2509    0.092     H
P       0.1532  0.79389  0.37346     P
O       0.1552   0.8723   0.3995     O
H       0.1605   0.5452   0.0254     H
C       0.1616   0.9681   0.2786     C
H       0.1617   0.4434   0.4542     H
Zn     0.16377   0.5441  0.26704    Zn
O       0.1681   0.2847   0.8187     O
H        0.172   0.2912   0.2572     H
C       0.1739   0.3786   0.6801     C
C       0.1741   0.4282   0.6406     C
H       0.1752   0.3642   0.4604     H
C       0.1753    0.394   0.1401     C
C       0.1754   0.6255   0.0861     C
C        0.177    0.602   0.5249     C
C        0.178    0.564   0.5713     C
C       0.1781   0.9261   0.8138     C
H       0.1798   0.0868   0.9446     H
H       0.1819   0.4553   0.9407     H
H       0.1839   0.0604   0.6675     H
H       0.1844   0.7924    0.557     H
P       0.1847  0.22416  0.85397     P
C       0.1872   0.1473   0.6181     C
H       0.1894   0.8897   0.1664     H
C       0.1915   0.4138   0.9596     C
C        0.193   0.8926   0.1287     C
H       0.1931   0.2629   0.3124     H
H       0.1931   0.8454   0.1145     H
C       0.1943   0.4438   0.1816     C
P       0.1943   0.6979   0.2106     P
C       0.1962   0.4144   0.4681     C
C       0.1966   0.2379   0.5528     C
O       0.1973   0.1589   0.8219     O
C       0.1976   0.5785   0.0441     C
H       0.2003   0.9081   0.0211     H
H       0.2008   0.4211   0.5056     H
H       0.2035   0.4268   0.9957     H
N       0.2058   0.0007   0.8101     N
H        0.206   0.0254   0.0954     H
O       0.2077   0.6217   0.2198     O
C       0.2095   0.2988   0.2856     C
H       0.2095   0.8295   0.8084     H
O         0.21    0.715   0.1501     O
H       0.2127   0.3463   0.3002     H
H       0.2146   0.3818   0.1193     H
H       0.2178   0.3588    0.686     H
H       0.2197   0.4425   0.6207     H
H        0.221   0.5747   0.5939     H
H       0.2215   0.0289   0.9193     H
H       0.2216   0.6361   0.5152     H
H       0.2241   0.4789   0.7642     H
H       0.2241     0.83   0.4722     H
C       0.2246   0.8667   0.4996     C
C       0.2249   0.0946   0.6486     C
O       0.2255   0.6255    0.404     O
C       0.2265   0.0672   0.9449     C
O       0.2268   0.5352   0.3272     O
H       0.2284   0.2713   0.5308     H
C        0.229   0.8793   0.8073     C
C       0.2316   0.8283   0.5509     C
C       0.2319    0.669    0.111     C
H       0.2335   0.0482   0.9793     H
C       0.2336   0.1916   0.5792     C
O       0.2376   0.7959   0.3609     O
H       0.2391   0.8629   0.5792     H
H       0.2424   0.5592   0.7847     H
H       0.2462   0.3736    0.898     H
H       0.2466   0.4668   0.1867     H
H       0.2488   0.8891   0.9415     H
H        0.249   0.0388     0.15     H
H       0.2506   0.0494   0.5775     H
O       0.2528   0.7546   0.2392     O
C       0.2538   0.0242   0.1141     C
C       0.2543   0.9124   0.0173     C
H       0.2555   0.1608   0.7116     H
H        0.258   0.0219    0.356     H
H       0.2587   0.4966   0.8209     H
C       0.2592   0.5138   0.7852     C
C       0.2609   0.3881   0.9344     C
H       0.2657   0.0028   0.6262     H
H       0.2663   0.4506   0.4069     H
S       0.2676   0.9828   0.2714     S
O       0.2681   0.2567   0.8819     O
C        0.269   0.9451    0.113     C
C       0.2712   0.0513   0.6128     C
P      0.27331  0.59877  0.35915     P
C       0.2751   0.3216   0.9634     C
C       0.2751   0.4367   0.4434     C
H       0.2757   0.8051   0.5492     H
C        0.276   0.5876   0.0352     C
C       0.2783    0.259   0.9362     C
H       0.2786   0.2599    0.235     H
C        0.279   0.0238   0.8049     C
H       0.2812   0.7729   0.7538     H
C       0.2823   0.1347   0.6877     C
C       0.2831   0.9012   0.9698     C
H       0.2855    0.189   0.5723     H
O       0.2863   0.0551    0.246     O
C       0.2867   0.2927   0.2654     C
H        0.289   0.9436   0.4539     H
H       0.2902   0.5583   0.0089     H
C        0.293   0.3225    0.017     C
H       0.2935   0.9519   0.3557     H
H       0.2938   0.1377   0.8936     H
C        0.294    0.924   0.4884     C
C       0.2945   0.9977   0.3388     C
C       0.2947   0.1965   0.9609     C
H       0.2958   0.3402   0.4169     H
Zn     0.29602  0.75301  0.30899    Zn
H       0.2969   0.0567   0.0976     H
H       0.2972    0.366   0.0352     H
H       0.2975   0.0738   0.8042     H
C       0.2978   0.1271   0.9312     C
H        0.298   0.9617   0.5143     H
C       0.3025   0.9303   0.0614     C
C       0.3045   0.2639   0.0441     C
C       0.3052   0.2023   0.0155     C
H       0.3056   0.1008   0.7072     H
C       0.3068   0.9052   0.7992     C
H       0.3074   0.3898   0.8041     H
H       0.3084   0.9421   0.1401     H
H       0.3099   0.4285    0.307     H
H       0.3116   0.2653   0.0805     H
H       0.3129   0.2084   0.3088     H
H       0.3132   0.1615   0.0336     H
C       0.3146   0.6773   0.1018     C
O       0.3155    0.658   0.3236     O
C       0.3212   0.5049   0.4709     C
H       0.3213   0.4615   0.5441     H
C       0.3217   0.3777   0.4403     C
H       0.3227   0.1683   0.6695     H
H       0.3247   0.7441   0.4487     H
H       0.3253   0.3576   0.4748     H
H       0.3256   0.2809   0.3411     H
H       0.3258   0.0748   0.6125     H
H       0.3266   0.4817   0.9044     H
H       0.3316   0.2843   0.7765     H
C       0.3324   0.2599   0.3073     C
C       0.3327   0.4487   0.9322     C
C       0.3331    0.981   0.8002     C
C       0.3342   0.7896   0.7615     C
C       0.3357   0.3891    0.773     C
C       0.3359    0.366   0.2472     C
C       0.3369   0.6336   0.0592     C
C       0.3371   0.5043   0.5252     C
H       0.3388    0.474   0.9653     H
C       0.3397   0.4303   0.2764     C
H       0.3404   0.9039   0.4896     H
C       0.3423   0.5244   0.7629     C
O       0.3424   0.5668   0.3876     O
H       0.3452   0.7628   0.1452     H
H       0.3458   0.5569   0.7324     H
H       0.3465   0.0273    0.341     H
C       0.3502   0.5677   0.4434     C
C       0.3513   0.3265   0.7577     C
C       0.3595   0.4555   0.7449     C
C       0.3606    0.907   0.9622     C
C       0.3648   0.8594   0.7861     C
H       0.3702   0.6587   0.1964     H
H       0.3706   0.0555   0.9204     H
O       0.3706    0.314   0.1673     O
H       0.3709   0.3243    0.594     H
C       0.3724   0.7276   0.1292     C
H       0.3728   0.7041   0.7375     H
O       0.3734   0.1836   0.1862     O
H       0.3735   0.3977   0.4274     H
C        0.374   0.1007   0.9387     C
C       0.3765   0.5676   0.5515     C
H       0.3783   0.4289   0.9255     H
H       0.3789   0.8983   0.9288     H
C        0.379   0.3736   0.2005     C
C       0.3803   0.7612   0.4532     C
H       0.3821   0.1189    0.433     H
H       0.3825   0.0939   0.9756     H
H       0.3837   0.5998   0.8178     H
C       0.3843   0.4936   0.2619     C
C       0.3859   0.9394   0.0528     C
H       0.3864   0.5673   0.5875     H
H       0.3865   0.0017   0.7978     H
H       0.3872     0.27   0.2983     H
H       0.3872   0.5341   0.2833     H
H        0.389   0.6368   0.0492     H
C       0.3906   0.7506   0.7507     C
C       0.3912   0.6309    0.468     C
H       0.3912   0.8543   0.6376     H
H       0.3913   0.7746   0.4894     H
Zn     0.39198  0.10018     0.22    Zn
H        0.398   0.8027    0.431     H
C       0.3994   0.3243   0.7112     C
C          0.4   0.6303   0.5216     C
C       0.4007   0.5592   0.8022     C
C       0.4016   0.4504   0.6993     C
H       0.4026   0.2435   0.4227     H
H       0.4035   0.8925   0.2108     H
H       0.4051   0.4604   0.0686     H
H       0.4059   0.5248   0.8292     H
O       0.4074   0.8071   0.3108     O
H       0.4083   0.5211   0.1113     H
C        0.411   0.6906   0.1773     C
H       0.4133   0.2811   0.7014     H
H       0.4143   0.6898   0.4002     H
C       0.4156   0.9265   0.0045     C
H       0.4171   0.1361   0.9247     H
H       0.4183   0.7976   0.0697     H
H       0.4225   0.6734   0.5386     H
H       0.4238   0.8255    0.586     H
C       0.4239   0.7002   0.4378     C
C       0.4244   0.3852   0.6816     C
O       0.4249   0.5125   0.6671     O
C        0.425   0.4996    0.217     C
C       0.4266   0.3311   0.5889     C
C       0.4272    0.439   0.1828     C
O       0.4277    0.037     0.17     O
P       0.4282  0.25516  0.17095     P
H       0.4341   0.9789   0.6212     H
O       0.4348   0.9532   0.0965     O
C        0.436    0.841   0.6217     C
C       0.4364   0.1165   0.4368     C
H       0.4382   0.7277   0.2005     H
C       0.4386   0.4919   0.0927     C
C       0.4394   0.7713   0.0966     C
S       0.4397   0.8861  0.29787     S
H       0.4404   0.3515   0.5546     H
H        0.442   0.2852   0.5917     H
C       0.4433   0.8776   0.7973     C
H       0.4455   0.0734   0.4199     H
H       0.4473   0.6633   0.1634     H
H       0.4493   0.1153   0.4736     H
H       0.4503   0.8021   0.6414     H
H       0.4506   0.5758   0.7852     H
C       0.4526   0.8905   0.2274     C
H       0.4533   0.5452   0.2072     H
H       0.4565   0.2978   0.0151     H
O       0.4574   0.1071   0.2818     O
C       0.4579   0.2512     0.43     C
O         0.46   0.2522   0.1157     O
H       0.4632   0.9206   0.8152     H
H       0.4663   0.2565   0.4674     H
H       0.4664   0.9627   0.5272     H
N       0.4667   0.7715   0.7569     N
O       0.4676   0.0876   0.0793     O
H       0.4685   0.7391   0.0805     H
C       0.4698   0.3834   0.6317     C
H         0.47   0.8481   0.2155     H
H       0.4726   0.9734   0.6765     H
P       0.4732  0.03136   0.1207     P
H       0.4736   0.8048   0.1191     H
H        0.475   0.1815   0.3728     H
C       0.4754   0.4443    0.134     C
H       0.4758   0.3961   0.1197     H
H       0.4784   0.4324   0.6167     H
H       0.4801   0.5228   0.0736     H
H       0.4802   0.8177   0.9796     H
C       0.4818   0.9758   0.6392     C
H       0.4819   0.3591   0.9389     H
O       0.4839   0.6416   0.6868     O
H       0.4848   0.2945   0.4124     H
H       0.4865     0.36   0.8417     H
C         0.49   0.1857   0.4101     C
O       0.4908    0.283   0.2122     O
H       0.4911   0.9331   0.2184     H
C       0.4941    0.833   0.7826     C
C       0.4956   0.2878    0.993     C
H       0.4973   0.5312   0.8971     H
C       0.4989   0.9314   0.9966     C
H       0.5008   0.0235   0.9542     H
H       0.5027    0.467   0.4417     H
H       0.5046   0.6786   0.9146     H
H       0.5058   0.3853   0.2744     H
H       0.5059   0.5363   0.5149     H
P       0.5068  0.56985   0.6713     P
H       0.5079   0.4638   0.3412     H
C       0.5082   0.9094   0.6216     C
H       0.5096   0.5609    0.955     H
C       0.5106   0.9428   0.5232     C
C       0.5118   0.3254   0.9482     C
C       0.5119   0.7246   0.4453     C
H       0.5121   0.8647   0.9302     H
C        0.517     0.86   0.9677     C
Zn      0.5172  0.18925  0.08103    Zn
H       0.5218   0.0178   0.6311     H
H       0.5223   0.9597   0.4472     H
H       0.5225   0.7434   0.4804     H
H       0.5248   0.4392   0.7711     H
H       0.5251   0.9368    0.031     H
H       0.5322   0.7618   0.4201     H
N       0.5353   0.2344   0.0076     N
C       0.5357   0.5494   0.9237     C
H       0.5366   0.6841   0.4403     H
C       0.5375   0.9932   0.9617     C
C       0.5394   0.3803   0.8359     C
O       0.5409   0.5709   0.6163     O
C       0.5419   0.8991   0.3142     C
C        0.544   0.9117   0.5673     C
P       0.5451  0.11565  0.28761     P
C       0.5457   0.9422    0.476     C
Zn     0.54698   0.7209  0.72315    Zn
H       0.5473   0.8462   0.7907     H
H       0.5473   0.8998    0.647     H
H       0.5475   0.8777   0.3479     H
C       0.5481   0.5012   0.4497     C
C       0.5488   0.3937   0.2971     C
C       0.5502   0.5424   0.4934     C
C       0.5504   0.4414   0.3372     C
H       0.5512   0.3187   0.6458     H
C       0.5523   0.3698   0.6469     C
H       0.5537   0.9743   0.9293     H
H       0.5551   0.5355   0.1529     H
O        0.556   0.5417   0.7132     O
C        0.557    0.488   0.1394     C
O       0.5577   0.0248    0.133     O
O       0.5592   0.0972   0.3486     O
C       0.5599   0.6862   0.9219     C
C       0.5626   0.4283   0.7938     C
H       0.5646   0.9501   0.3154     H
H       0.5653   0.5132   0.9318     H
H       0.5657   0.3878   0.6818     H
H       0.5683   0.8764   0.2878     H
H       0.5685    0.693   0.9592     H
H       0.5695   0.8551   0.9761     H
C       0.5724   0.1869   0.4097     C
C       0.5728    0.315   0.9152     C
O       0.5763   0.0601   0.2553     O
H       0.5821   0.4934   0.1054     H
H       0.5826   0.0213   0.9794     H
H       0.5864   0.4645   0.1631     H
H       0.5865   0.6171   0.8647     H
H       0.5871   0.7286   0.9035     H
O       0.5904   0.1932   0.2787     O
H       0.5908   0.3945   0.6223     H
C       0.5918   0.2228   0.9775     C
C       0.5918   0.6184   0.9032     C
Zn     0.59298  0.27603  0.23571    Zn
H       0.5946   0.2752   0.4646     H
C       0.5982   0.3636   0.8691     C
O       0.6029   0.7916   0.6744     O
C       0.6069   0.1469   0.3815     C
N        0.607   0.3582   0.2888     N
O       0.6097   0.7047   0.7815     O
C       0.6102   0.4579   0.3713     C
C       0.6118   0.9182   0.4675     C
C       0.6122   0.2615   0.9295     C
C        0.613   0.5091   0.4163     C
C       0.6132   0.8916   0.5565     C
N       0.6136   0.5912   0.5067     N
C       0.6165   0.2421   0.4456     C
O       0.6195   0.7388   0.5852     O
H       0.6199   0.1881   0.9875     H
Zn     0.62305  0.63791   0.5806    Zn
O       0.6237   0.2028   0.1002     O
H       0.6252   0.9076   0.1792     H
Zn     0.62771  0.06674  0.18781    Zn
H       0.6325   0.9198   0.4335     H
H       0.6382   0.9738    0.755     H
N       0.6395   0.4592   0.7858     N
H       0.6417   0.9198   0.7084     H
H       0.6455   0.3754    0.042     H
C       0.6485    0.892   0.5072     C
H       0.6488   0.0027   0.6969     H
H       0.6488   0.9098   0.8851     H
H       0.6516   0.2509    0.908     H
P       0.6532  0.79389  0.62654     P
O       0.6552   0.8723   0.6005     O
H       0.6605   0.5452   0.9746     H
C       0.6616   0.9681   0.7214     C
H       0.6617   0.4434   0.5458     H
Zn     0.66377   0.5441  0.73296    Zn
O       0.6681   0.2847   0.1813     O
H        0.672   0.2912   0.7428     H
C       0.6739   0.3786   0.3199     C
C       0.6741   0.4282   0.3594     C
H       0.6752   0.3642   0.5396     H
C       0.6753    0.394   0.8599     C
C       0.6754   0.6255   0.9139     C
C        0.677    0.602   0.4751     C
C        0.678    0.564   0.4287     C
C       0.6781   0.9261   0.1862     C
H       0.6798   0.0868   0.0554     H
H       0.6819   0.4553   0.0593     H
H       0.6839   0.0604   0.3325     H
H       0.6844   0.7924    0.443     H
P       0.6847  0.22416  0.14603     P
C       0.6872   0.1473   0.3819     C
H       0.6894   0.8897   0.8336     H
C       0.6915   0.4138   0.0404     C
C        0.693   0.8926   0.8713     C
H       0.6931   0.2629   0.6876     H
H       0.6931   0.8454   0.8855     H
C       0.6943   0.4438   0.8184     C
P       0.6943   0.6979   0.7894     P
C       0.6962   0.4144   0.5319     C
C       0.6966   0.2379   0.4472     C
O       0.6973   0.1589   0.1781     O
C       0.6976   0.5785   0.9559     C
H       0.7003   0.9081   0.9789     H
H       0.7008   0.4211   0.4944     H
H       0.7035   0.4268   0.0043     H
N       0.7058   0.0007   0.1899     N
H        0.706   0.0254   0.9046     H
O       0.7077   0.6217   0.7802     O
C       0.7095   0.2988   0.7144     C
H       0.7095   0.8295   0.1916     H
O         0.71    0.715   0.8499     O
H       0.7127   0.3463   0.6998     H
H       0.7146   0.3818   0.8807     H
H       0.7178   0.3588    0.314     H
H       0.7197   0.4425   0.3793     H
H        0.721   0.5747   0.4061     H
H       0.7215   0.0289   0.0807     H
H       0.7216   0.6361   0.4848     H
H       0.7241   0.4789   0.2358     H
H       0.7241     0.83   0.5278     H
C       0.7246   0.8667   0.5004     C
C       0.7249   0.0946   0.3514     C
O       0.7255   0.6255    0.596     O
C       0.7265   0.0672   0.0551     C
O       0.7268   0.5352   0.6728     O
H       0.7284   0.2713   0.4692     H
C        0.729   0.8793   0.1927     C
C       0.7316   0.8283   0.4491     C
C       0.7319    0.669    0.889     C
H       0.7335   0.0482   0.0207     H
C       0.7336   0.1916   0.4208     C
O       0.7376   0.7959   0.6391     O
H       0.7391   0.8629   0.4208     H
H       0.7424   0.5592   0.2153     H
H       0.7462   0.3736    0.102     H
H       0.7466   0.4668   0.8133     H
H       0.7488   0.8891   0.0585     H
H        0.749   0.0388     0.85     H
H       0.7506   0.0494   0.4225     H
O       0.7528   0.7546   0.7608     O
C       0.7538   0.0242   0.8859     C
C       0.7543   0.9124   0.9827     C
H       0.7555   0.1608   0.2884     H
H        0.758   0.0219    0.644     H
H       0.7587   0.4966   0.1791     H
C       0.7592   0.5138   0.2148     C
C       0.7609   0.3881   0.0656     C
H       0.7657   0.0028   0.3738     H
H       0.7663   0.4506   0.5931     H
S       0.7676   0.9828   0.7286     S
O       0.7681   0.2567   0.1181     O
C        0.769   0.9451    0.887     C
C       0.7712   0.0513   0.3872     C
P      0.77331  0.59877  0.64085     P
C       0.7751   0.3216   0.0366     C
C       0.7751   0.4367   0.5566     C
H       0.7757   0.8051   0.4508     H
C        0.776   0.5876   0.9648     C
C       0.7783    0.259   0.0638     C
H       0.7786   0.2599    0.765     H
C        0.779   0.0238   0.1951     C
H       0.7812   0.7729   0.2462     H
C       0.7823   0.1347   0.3123     C
C       0.7831   0.9012   0.0302     C
H       0.7855    0.189   0.4277     H
O       0.7863   0.0551    0.754     O
C       0.7867   0.2927   0.7346     C
H        0.789   0.9436   0.5461     H
H       0.7902   0.5583   0.9911     H
C        0.793   0.3225    0.983     C
H       0.7935   0.9519   0.6443     H
H       0.7938   0.1377   0.1064     H
C        0.794    0.924   0.5116     C
C       0.7945   0.9977   0.6612     C
C       0.7947   0.1965   0.0391     C
H       0.7958   0.3402   0.5831     H
Zn     0.79602  0.75301  0.69101    Zn
H       0.7969   0.0567   0.9024     H
H       0.7972    0.366   0.9648     H
H       0.7975   0.0738   0.1958     H
C       0.7978   0.1271   0.0688     C
H        0.798   0.9617   0.4857     H
C       0.8025   0.9303   0.9386     C
C       0.8045   0.2639   0.9559     C
C       0.8052   0.2023   0.9845     C
H       0.8056   0.1008   0.2928     H
C       0.8068   0.9052   0.2008     C
H       0.8074   0.3898   0.1959     H
H       0.8084   0.9421   0.8599     H
H       0.8099   0.4285    0.693     H
H       0.8116   0.2653   0.9195     H
H       0.8129   0.2084   0.6912     H
H       0.8132   0.1615   0.9664     H
C       0.8146   0.6773   0.8982     C
O       0.8155    0.658   0.6764     O
C       0.8212   0.5049   0.5291     C
H       0.8213   0.4615   0.4559     H
C       0.8217   0.3777   0.5597     C
H       0.8227   0.1683   0.3305     H
H       0.8247   0.7441   0.5513     H
H       0.8253   0.3576   0.5252     H
H       0.8256   0.2809   0.6589     H
H       0.8258   0.0748   0.3875     H
H       0.8266   0.4817   0.0956     H
H       0.8316   0.2843   0.2235     H
C       0.8324   0.2599   0.6927     C
C       0.8327   0.4487   0.0678     C
C       0.8331    0.981   0.1998     C
C       0.8342   0.7896   0.2385     C
C       0.8357   0.3891    0.227     C
C       0.8359    0.366   0.7528     C
C       0.8369   0.6336   0.9408     C
C       0.8371   0.5043   0.4748     C
H       0.8388    0.474   0.0347     H
C       0.8397   0.4303   0.7236     C
H       0.8404   0.9039   0.5104     H
C       0.8423   0.5244   0.2371     C
O       0.8424   0.5668   0.6124     O
H       0.8452   0.7628   0.8548     H
H       0.8458   0.5569   0.2676     H
H       0.8465   0.0273    0.659     H
C       0.8502   0.5677   0.5566     C
C       0.8513   0.3265   0.2423     C
C       0.8595   0.4555   0.2551     C
C       0.8606    0.907   0.0378     C
C       0.8648   0.8594   0.2139     C
H       0.8702   0.6587   0.8036     H
H       0.8706   0.0555   0.0796     H
O       0.8706    0.314   0.8327     O
H       0.8709   0.3243    0.406     H
C       0.8724   0.7276   0.8708     C
H       0.8728   0.7041   0.2625     H
O       0.8734   0.1836   0.8138     O
H       0.8735   0.3977   0.5726     H
C        0.874   0.1007   0.0613     C
C       0.8765   0.5676   0.4485     C
H       0.8783   0.4289   0.0745     H
H       0.8789   0.8983   0.0712     H
C        0.879   0.3736   0.7995     C
C       0.8803   0.7612   0.5468     C
H       0.8821   0.1189    0.567     H
H       0.8825   0.0939   0.0244     H
H       0.8837   0.5998   0.1822     H
C       0.8843   0.4936   0.7381     C
C       0.8859   0.9394   0.9472     C
H       0.8864   0.5673   0.4125     H
H       0.8865   0.0017   0.2022     H
H       0.8872     0.27   0.7017     H
H       0.8872   0.5341   0.7167     H
H        0.889   0.6368   0.9508     H
C       0.8906   0.7506   0.2493     C
C       0.8912   0.6309    0.532     C
H       0.8912   0.8543   0.3624     H
H       0.8913   0.7746   0.5106     H
Zn     0.89198  0.10018     0.78    Zn
H        0.898   0.8027    0.569     H
C       0.8994   0.3243   0.2888     C
C          0.9   0.6303   0.4784     C
C       0.9007   0.5592   0.1978     C
C       0.9016   0.4504   0.3007     C
H       0.9026   0.2435   0.5773     H
H       0.9035   0.8925   0.7892     H
H       0.9051   0.4604   0.9314     H
H       0.9059   0.5248   0.1708     H
O       0.9074   0.8071   0.6892     O
H       0.9083   0.5211   0.8887     H
C        0.911   0.6906   0.8227     C
H       0.9133   0.2811   0.2986     H
H       0.9143   0.6898   0.5998     H
C       0.9156   0.9265   0.9955     C
H       0.9171   0.1361   0.0753     H
H       0.9183   0.7976   0.9303     H
H       0.9225   0.6734   0.4614     H
H       0.9238   0.8255    0.414     H
C       0.9239   0.7002   0.5622     C
C       0.9244   0.3852   0.3184     C
O       0.9249   0.5125   0.3329     O
C        0.925   0.4996    0.783     C
C       0.9266   0.3311   0.4111     C
C       0.9272    0.439   0.8172     C
O       0.9277    0.037     0.83     O
P       0.9282  0.25516  0.82905     P
H       0.9341   0.9789   0.3788     H
O       0.9348   0.9532   0.9035     O
C        0.936    0.841   0.3783     C
C       0.9364   0.1165   0.5632     C
H       0.9382   0.7277   0.7995     H
C       0.9386   0.4919   0.9073     C
C       0.9394   0.7713   0.9034     C
S       0.9397   0.8861  0.70213     S
H       0.9404   0.3515   0.4454     H
H        0.942   0.2852   0.4083     H
C       0.9433   0.8776   0.2027     C
H       0.9455   0.0734   0.5801     H
H       0.9473   0.6633   0.8366     H
H       0.9493   0.1153   0.5264     H
H       0.9503   0.8021   0.3586     H
H       0.9506   0.5758   0.2148     H
C       0.9526   0.8905   0.7726     C
H       0.9533   0.5452   0.7928     H
H       0.9565   0.2978   0.9849     H
O       0.9574   0.1071   0.7182     O
C       0.9579   0.2512     0.57     C
O         0.96   0.2522   0.8843     O
H       0.9632   0.9206   0.1848     H
H       0.9663   0.2565   0.5326     H
H       0.9664   0.9627   0.4728     H
N       0.9667   0.7715   0.2431     N
O       0.9676   0.0876   0.9207     O
H       0.9685   0.7391   0.9195     H
C       0.9698   0.3834   0.3683     C
H         0.97   0.8481   0.7845     H
H       0.9726   0.9734   0.3235     H
P       0.9732  0.03136   0.8793     P
H       0.9736   0.8048   0.8809     H
H        0.975   0.1815   0.6272     H
C       0.9754   0.4443    0.866     C
H       0.9758   0.3961   0.8803     H
H       0.9784   0.4324   0.3833     H
H       0.9801   0.5228   0.9264     H
H       0.9802   0.8177   0.0204     H
C       0.9818   0.9758   0.3608     C
H       0.9819   0.3591   0.0611     H
O       0.9839   0.6416   0.3132     O
H       0.9848   0.2945   0.5876     H
H       0.9865     0.36   0.1583     H
C         0.99   0.1857   0.5899     C
O       0.9908    0.283   0.7878     O
H       0.9911   0.9331   0.7816     H
C       0.9941    0.833   0.2174     C
C       0.9956   0.2878    0.007     C
H       0.9973   0.5312   0.1029     H
C       0.9989   0.9314   0.0034     C
