data_I
_chemical_name_common  '/home/zhangsd/repos/MofS-CGCNN/ML/data/WS24/clean_cifs/SOYWUZ'
_cell_length_a 26.30340
_cell_length_b 26.30340
_cell_length_c 26.30340
_cell_angle_alpha 90.00000
_cell_angle_beta  90.00000
_cell_angle_gamma 90.00000
_space_group_name_H-M_alt      'P 1'


loop_
_space_group_symop_operation_xyz
  'x, y, z' 

loop_
_atom_site_label
_atom_site_fract_x
_atom_site_fract_y
_atom_site_fract_z
_atom_site_type_symbol
Cu         0.0  0.21482  0.21482    Cu
Cu         0.0  0.21482  0.78518    Cu
Cu         0.0  0.28518  0.28518    Cu
Cu         0.0  0.28518  0.71482    Cu
Cu         0.0  0.71482  0.28518    Cu
Cu         0.0  0.71482  0.71482    Cu
Cu         0.0  0.78518  0.21482    Cu
Cu         0.0  0.78518  0.78518    Cu
O       0.0523  0.18319  0.25667     O
O       0.0523  0.18319  0.74333     O
O       0.0523  0.24333  0.31681     O
O       0.0523  0.24333  0.68319     O
O       0.0523  0.25667  0.18319     O
O       0.0523  0.25667  0.81681     O
O       0.0523  0.31681  0.24333     O
O       0.0523  0.31681  0.75667     O
O       0.0523  0.68319  0.24333     O
O       0.0523  0.68319  0.75667     O
O       0.0523  0.74333  0.18319     O
O       0.0523  0.74333  0.81681     O
O       0.0523  0.75667  0.31681     O
O       0.0523  0.75667  0.68319     O
O       0.0523  0.81681  0.25667     O
O       0.0523  0.81681  0.74333     O
C       0.0689  0.20248  0.29752     C
C       0.0689  0.20248  0.70248     C
C       0.0689  0.29752  0.20248     C
C       0.0689  0.29752  0.79752     C
C       0.0689  0.70248  0.20248     C
C       0.0689  0.70248  0.79752     C
C       0.0689  0.79752  0.29752     C
C       0.0689  0.79752  0.70248     C
C       0.1122  0.17676  0.32324     C
C       0.1122  0.17676  0.67676     C
C       0.1122  0.32324  0.17676     C
C       0.1122  0.32324  0.82324     C
C       0.1122  0.67676  0.17676     C
C       0.1122  0.67676  0.82324     C
C       0.1122  0.82324  0.32324     C
C       0.1122  0.82324  0.67676     C
C       0.1336   0.1336   0.3017     C
C       0.1336   0.1336   0.6983     C
C       0.1336   0.1983   0.3664     C
C       0.1336   0.1983   0.6336     C
C       0.1336   0.3017   0.1336     C
C       0.1336   0.3017   0.8664     C
C       0.1336   0.3664   0.1983     C
C       0.1336   0.3664   0.8017     C
C       0.1336   0.6336   0.1983     C
C       0.1336   0.6336   0.8017     C
C       0.1336   0.6983   0.1336     C
C       0.1336   0.6983   0.8664     C
C       0.1336   0.8017   0.3664     C
C       0.1336   0.8017   0.6336     C
C       0.1336   0.8664   0.3017     C
C       0.1336   0.8664   0.6983     C
C      0.17676   0.1122  0.32324     C
C      0.17676   0.1122  0.67676     C
C      0.17676  0.17676   0.3878     C
C      0.17676  0.17676   0.6122     C
C      0.17676  0.32324   0.1122     C
C      0.17676  0.32324   0.8878     C
C      0.17676   0.3878  0.17676     C
C      0.17676   0.3878  0.82324     C
C      0.17676   0.6122  0.17676     C
C      0.17676   0.6122  0.82324     C
C      0.17676  0.67676   0.1122     C
C      0.17676  0.67676   0.8878     C
C      0.17676  0.82324   0.3878     C
C      0.17676  0.82324   0.6122     C
C      0.17676   0.8878  0.32324     C
C      0.17676   0.8878  0.67676     C
O      0.18319   0.0523  0.25667     O
O      0.18319   0.0523  0.74333     O
O      0.18319  0.24333   0.4477     O
O      0.18319  0.24333   0.5523     O
O      0.18319  0.25667   0.0523     O
O      0.18319  0.25667   0.9477     O
O      0.18319   0.4477  0.24333     O
O      0.18319   0.4477  0.75667     O
O      0.18319   0.5523  0.24333     O
O      0.18319   0.5523  0.75667     O
O      0.18319  0.74333   0.0523     O
O      0.18319  0.74333   0.9477     O
O      0.18319  0.75667   0.4477     O
O      0.18319  0.75667   0.5523     O
O      0.18319   0.9477  0.25667     O
O      0.18319   0.9477  0.74333     O
C       0.1983   0.1336   0.3664     C
C       0.1983   0.1336   0.6336     C
C       0.1983   0.3664   0.1336     C
C       0.1983   0.3664   0.8664     C
C       0.1983   0.6336   0.1336     C
C       0.1983   0.6336   0.8664     C
C       0.1983   0.8664   0.3664     C
C       0.1983   0.8664   0.6336     C
C      0.20248   0.0689  0.29752     C
C      0.20248   0.0689  0.70248     C
C      0.20248  0.20248   0.4311     C
C      0.20248  0.20248   0.5689     C
C      0.20248  0.29752   0.0689     C
C      0.20248  0.29752   0.9311     C
C      0.20248   0.4311  0.20248     C
C      0.20248   0.4311  0.79752     C
C      0.20248   0.5689  0.20248     C
C      0.20248   0.5689  0.79752     C
C      0.20248  0.70248   0.0689     C
C      0.20248  0.70248   0.9311     C
C      0.20248  0.79752   0.4311     C
C      0.20248  0.79752   0.5689     C
C      0.20248   0.9311  0.29752     C
C      0.20248   0.9311  0.70248     C
Cu     0.21482      0.0  0.21482    Cu
Cu     0.21482      0.0  0.78518    Cu
Cu     0.21482  0.21482      0.0    Cu
Cu     0.21482  0.28518      0.5    Cu
Cu     0.21482      0.5  0.28518    Cu
Cu     0.21482      0.5  0.71482    Cu
Cu     0.21482  0.71482      0.5    Cu
Cu     0.21482  0.78518      0.0    Cu
O      0.24333   0.0523  0.31681     O
O      0.24333   0.0523  0.68319     O
O      0.24333  0.18319   0.4477     O
O      0.24333  0.18319   0.5523     O
O      0.24333  0.31681   0.0523     O
O      0.24333  0.31681   0.9477     O
O      0.24333   0.4477  0.18319     O
O      0.24333   0.4477  0.81681     O
O      0.24333   0.5523  0.18319     O
O      0.24333   0.5523  0.81681     O
O      0.24333  0.68319   0.0523     O
O      0.24333  0.68319   0.9477     O
O      0.24333  0.81681   0.4477     O
O      0.24333  0.81681   0.5523     O
O      0.24333   0.9477  0.31681     O
O      0.24333   0.9477  0.68319     O
O      0.25667   0.0523  0.18319     O
O      0.25667   0.0523  0.81681     O
O      0.25667  0.18319   0.0523     O
O      0.25667  0.18319   0.9477     O
O      0.25667  0.31681   0.4477     O
O      0.25667  0.31681   0.5523     O
O      0.25667   0.4477  0.31681     O
O      0.25667   0.4477  0.68319     O
O      0.25667   0.5523  0.31681     O
O      0.25667   0.5523  0.68319     O
O      0.25667  0.68319   0.4477     O
O      0.25667  0.68319   0.5523     O
O      0.25667  0.81681   0.0523     O
O      0.25667  0.81681   0.9477     O
O      0.25667   0.9477  0.18319     O
O      0.25667   0.9477  0.81681     O
Cu     0.28518      0.0  0.28518    Cu
Cu     0.28518      0.0  0.71482    Cu
Cu     0.28518  0.21482      0.5    Cu
Cu     0.28518  0.28518      0.0    Cu
Cu     0.28518      0.5  0.21482    Cu
Cu     0.28518      0.5  0.78518    Cu
Cu     0.28518  0.71482      0.0    Cu
Cu     0.28518  0.78518      0.5    Cu
C      0.29752   0.0689  0.20248     C
C      0.29752   0.0689  0.79752     C
C      0.29752  0.20248   0.0689     C
C      0.29752  0.20248   0.9311     C
C      0.29752  0.29752   0.4311     C
C      0.29752  0.29752   0.5689     C
C      0.29752   0.4311  0.29752     C
C      0.29752   0.4311  0.70248     C
C      0.29752   0.5689  0.29752     C
C      0.29752   0.5689  0.70248     C
C      0.29752  0.70248   0.4311     C
C      0.29752  0.70248   0.5689     C
C      0.29752  0.79752   0.0689     C
C      0.29752  0.79752   0.9311     C
C      0.29752   0.9311  0.20248     C
C      0.29752   0.9311  0.79752     C
C       0.3017   0.1336   0.1336     C
C       0.3017   0.1336   0.8664     C
C       0.3017   0.3664   0.3664     C
C       0.3017   0.3664   0.6336     C
C       0.3017   0.6336   0.3664     C
C       0.3017   0.6336   0.6336     C
C       0.3017   0.8664   0.1336     C
C       0.3017   0.8664   0.8664     C
O      0.31681   0.0523  0.24333     O
O      0.31681   0.0523  0.75667     O
O      0.31681  0.24333   0.0523     O
O      0.31681  0.24333   0.9477     O
O      0.31681  0.25667   0.4477     O
O      0.31681  0.25667   0.5523     O
O      0.31681   0.4477  0.25667     O
O      0.31681   0.4477  0.74333     O
O      0.31681   0.5523  0.25667     O
O      0.31681   0.5523  0.74333     O
O      0.31681  0.74333   0.4477     O
O      0.31681  0.74333   0.5523     O
O      0.31681  0.75667   0.0523     O
O      0.31681  0.75667   0.9477     O
O      0.31681   0.9477  0.24333     O
O      0.31681   0.9477  0.75667     O
C      0.32324   0.1122  0.17676     C
C      0.32324   0.1122  0.82324     C
C      0.32324  0.17676   0.1122     C
C      0.32324  0.17676   0.8878     C
C      0.32324  0.32324   0.3878     C
C      0.32324  0.32324   0.6122     C
C      0.32324   0.3878  0.32324     C
C      0.32324   0.3878  0.67676     C
C      0.32324   0.6122  0.32324     C
C      0.32324   0.6122  0.67676     C
C      0.32324  0.67676   0.3878     C
C      0.32324  0.67676   0.6122     C
C      0.32324  0.82324   0.1122     C
C      0.32324  0.82324   0.8878     C
C      0.32324   0.8878  0.17676     C
C      0.32324   0.8878  0.82324     C
C       0.3664   0.1336   0.1983     C
C       0.3664   0.1336   0.8017     C
C       0.3664   0.1983   0.1336     C
C       0.3664   0.1983   0.8664     C
C       0.3664   0.3017   0.3664     C
C       0.3664   0.3017   0.6336     C
C       0.3664   0.3664   0.3017     C
C       0.3664   0.3664   0.6983     C
C       0.3664   0.6336   0.3017     C
C       0.3664   0.6336   0.6983     C
C       0.3664   0.6983   0.3664     C
C       0.3664   0.6983   0.6336     C
C       0.3664   0.8017   0.1336     C
C       0.3664   0.8017   0.8664     C
C       0.3664   0.8664   0.1983     C
C       0.3664   0.8664   0.8017     C
C       0.3878  0.17676  0.17676     C
C       0.3878  0.17676  0.82324     C
C       0.3878  0.32324  0.32324     C
C       0.3878  0.32324  0.67676     C
C       0.3878  0.67676  0.32324     C
C       0.3878  0.67676  0.67676     C
C       0.3878  0.82324  0.17676     C
C       0.3878  0.82324  0.82324     C
C       0.4311  0.20248  0.20248     C
C       0.4311  0.20248  0.79752     C
C       0.4311  0.29752  0.29752     C
C       0.4311  0.29752  0.70248     C
C       0.4311  0.70248  0.29752     C
C       0.4311  0.70248  0.70248     C
C       0.4311  0.79752  0.20248     C
C       0.4311  0.79752  0.79752     C
O       0.4477  0.18319  0.24333     O
O       0.4477  0.18319  0.75667     O
O       0.4477  0.24333  0.18319     O
O       0.4477  0.24333  0.81681     O
O       0.4477  0.25667  0.31681     O
O       0.4477  0.25667  0.68319     O
O       0.4477  0.31681  0.25667     O
O       0.4477  0.31681  0.74333     O
O       0.4477  0.68319  0.25667     O
O       0.4477  0.68319  0.74333     O
O       0.4477  0.74333  0.31681     O
O       0.4477  0.74333  0.68319     O
O       0.4477  0.75667  0.18319     O
O       0.4477  0.75667  0.81681     O
O       0.4477  0.81681  0.24333     O
O       0.4477  0.81681  0.75667     O
Cu         0.5  0.21482  0.28518    Cu
Cu         0.5  0.21482  0.71482    Cu
Cu         0.5  0.28518  0.21482    Cu
Cu         0.5  0.28518  0.78518    Cu
Cu         0.5  0.71482  0.21482    Cu
Cu         0.5  0.71482  0.78518    Cu
Cu         0.5  0.78518  0.28518    Cu
Cu         0.5  0.78518  0.71482    Cu
O       0.5523  0.18319  0.24333     O
O       0.5523  0.18319  0.75667     O
O       0.5523  0.24333  0.18319     O
O       0.5523  0.24333  0.81681     O
O       0.5523  0.25667  0.31681     O
O       0.5523  0.25667  0.68319     O
O       0.5523  0.31681  0.25667     O
O       0.5523  0.31681  0.74333     O
O       0.5523  0.68319  0.25667     O
O       0.5523  0.68319  0.74333     O
O       0.5523  0.74333  0.31681     O
O       0.5523  0.74333  0.68319     O
O       0.5523  0.75667  0.18319     O
O       0.5523  0.75667  0.81681     O
O       0.5523  0.81681  0.24333     O
O       0.5523  0.81681  0.75667     O
C       0.5689  0.20248  0.20248     C
C       0.5689  0.20248  0.79752     C
C       0.5689  0.29752  0.29752     C
C       0.5689  0.29752  0.70248     C
C       0.5689  0.70248  0.29752     C
C       0.5689  0.70248  0.70248     C
C       0.5689  0.79752  0.20248     C
C       0.5689  0.79752  0.79752     C
C       0.6122  0.17676  0.17676     C
C       0.6122  0.17676  0.82324     C
C       0.6122  0.32324  0.32324     C
C       0.6122  0.32324  0.67676     C
C       0.6122  0.67676  0.32324     C
C       0.6122  0.67676  0.67676     C
C       0.6122  0.82324  0.17676     C
C       0.6122  0.82324  0.82324     C
C       0.6336   0.1336   0.1983     C
C       0.6336   0.1336   0.8017     C
C       0.6336   0.1983   0.1336     C
C       0.6336   0.1983   0.8664     C
C       0.6336   0.3017   0.3664     C
C       0.6336   0.3017   0.6336     C
C       0.6336   0.3664   0.3017     C
C       0.6336   0.3664   0.6983     C
C       0.6336   0.6336   0.3017     C
C       0.6336   0.6336   0.6983     C
C       0.6336   0.6983   0.3664     C
C       0.6336   0.6983   0.6336     C
C       0.6336   0.8017   0.1336     C
C       0.6336   0.8017   0.8664     C
C       0.6336   0.8664   0.1983     C
C       0.6336   0.8664   0.8017     C
C      0.67676   0.1122  0.17676     C
C      0.67676   0.1122  0.82324     C
C      0.67676  0.17676   0.1122     C
C      0.67676  0.17676   0.8878     C
C      0.67676  0.32324   0.3878     C
C      0.67676  0.32324   0.6122     C
C      0.67676   0.3878  0.32324     C
C      0.67676   0.3878  0.67676     C
C      0.67676   0.6122  0.32324     C
C      0.67676   0.6122  0.67676     C
C      0.67676  0.67676   0.3878     C
C      0.67676  0.67676   0.6122     C
C      0.67676  0.82324   0.1122     C
C      0.67676  0.82324   0.8878     C
C      0.67676   0.8878  0.17676     C
C      0.67676   0.8878  0.82324     C
O      0.68319   0.0523  0.24333     O
O      0.68319   0.0523  0.75667     O
O      0.68319  0.24333   0.0523     O
O      0.68319  0.24333   0.9477     O
O      0.68319  0.25667   0.4477     O
O      0.68319  0.25667   0.5523     O
O      0.68319   0.4477  0.25667     O
O      0.68319   0.4477  0.74333     O
O      0.68319   0.5523  0.25667     O
O      0.68319   0.5523  0.74333     O
O      0.68319  0.74333   0.4477     O
O      0.68319  0.74333   0.5523     O
O      0.68319  0.75667   0.0523     O
O      0.68319  0.75667   0.9477     O
O      0.68319   0.9477  0.24333     O
O      0.68319   0.9477  0.75667     O
C       0.6983   0.1336   0.1336     C
C       0.6983   0.1336   0.8664     C
C       0.6983   0.3664   0.3664     C
C       0.6983   0.3664   0.6336     C
C       0.6983   0.6336   0.3664     C
C       0.6983   0.6336   0.6336     C
C       0.6983   0.8664   0.1336     C
C       0.6983   0.8664   0.8664     C
C      0.70248   0.0689  0.20248     C
C      0.70248   0.0689  0.79752     C
C      0.70248  0.20248   0.0689     C
C      0.70248  0.20248   0.9311     C
C      0.70248  0.29752   0.4311     C
C      0.70248  0.29752   0.5689     C
C      0.70248   0.4311  0.29752     C
C      0.70248   0.4311  0.70248     C
C      0.70248   0.5689  0.29752     C
C      0.70248   0.5689  0.70248     C
C      0.70248  0.70248   0.4311     C
C      0.70248  0.70248   0.5689     C
C      0.70248  0.79752   0.0689     C
C      0.70248  0.79752   0.9311     C
C      0.70248   0.9311  0.20248     C
C      0.70248   0.9311  0.79752     C
Cu     0.71482      0.0  0.28518    Cu
Cu     0.71482      0.0  0.71482    Cu
Cu     0.71482  0.21482      0.5    Cu
Cu     0.71482  0.28518      0.0    Cu
Cu     0.71482      0.5  0.21482    Cu
Cu     0.71482      0.5  0.78518    Cu
Cu     0.71482  0.71482      0.0    Cu
Cu     0.71482  0.78518      0.5    Cu
O      0.74333   0.0523  0.18319     O
O      0.74333   0.0523  0.81681     O
O      0.74333  0.18319   0.0523     O
O      0.74333  0.18319   0.9477     O
O      0.74333  0.31681   0.4477     O
O      0.74333  0.31681   0.5523     O
O      0.74333   0.4477  0.31681     O
O      0.74333   0.4477  0.68319     O
O      0.74333   0.5523  0.31681     O
O      0.74333   0.5523  0.68319     O
O      0.74333  0.68319   0.4477     O
O      0.74333  0.68319   0.5523     O
O      0.74333  0.81681   0.0523     O
O      0.74333  0.81681   0.9477     O
O      0.74333   0.9477  0.18319     O
O      0.74333   0.9477  0.81681     O
O      0.75667   0.0523  0.31681     O
O      0.75667   0.0523  0.68319     O
O      0.75667  0.18319   0.4477     O
O      0.75667  0.18319   0.5523     O
O      0.75667  0.31681   0.0523     O
O      0.75667  0.31681   0.9477     O
O      0.75667   0.4477  0.18319     O
O      0.75667   0.4477  0.81681     O
O      0.75667   0.5523  0.18319     O
O      0.75667   0.5523  0.81681     O
O      0.75667  0.68319   0.0523     O
O      0.75667  0.68319   0.9477     O
O      0.75667  0.81681   0.4477     O
O      0.75667  0.81681   0.5523     O
O      0.75667   0.9477  0.31681     O
O      0.75667   0.9477  0.68319     O
Cu     0.78518      0.0  0.21482    Cu
Cu     0.78518      0.0  0.78518    Cu
Cu     0.78518  0.21482      0.0    Cu
Cu     0.78518  0.28518      0.5    Cu
Cu     0.78518      0.5  0.28518    Cu
Cu     0.78518      0.5  0.71482    Cu
Cu     0.78518  0.71482      0.5    Cu
Cu     0.78518  0.78518      0.0    Cu
C      0.79752   0.0689  0.29752     C
C      0.79752   0.0689  0.70248     C
C      0.79752  0.20248   0.4311     C
C      0.79752  0.20248   0.5689     C
C      0.79752  0.29752   0.0689     C
C      0.79752  0.29752   0.9311     C
C      0.79752   0.4311  0.20248     C
C      0.79752   0.4311  0.79752     C
C      0.79752   0.5689  0.20248     C
C      0.79752   0.5689  0.79752     C
C      0.79752  0.70248   0.0689     C
C      0.79752  0.70248   0.9311     C
C      0.79752  0.79752   0.4311     C
C      0.79752  0.79752   0.5689     C
C      0.79752   0.9311  0.29752     C
C      0.79752   0.9311  0.70248     C
C       0.8017   0.1336   0.3664     C
C       0.8017   0.1336   0.6336     C
C       0.8017   0.3664   0.1336     C
C       0.8017   0.3664   0.8664     C
C       0.8017   0.6336   0.1336     C
C       0.8017   0.6336   0.8664     C
C       0.8017   0.8664   0.3664     C
C       0.8017   0.8664   0.6336     C
O      0.81681   0.0523  0.25667     O
O      0.81681   0.0523  0.74333     O
O      0.81681  0.24333   0.4477     O
O      0.81681  0.24333   0.5523     O
O      0.81681  0.25667   0.0523     O
O      0.81681  0.25667   0.9477     O
O      0.81681   0.4477  0.24333     O
O      0.81681   0.4477  0.75667     O
O      0.81681   0.5523  0.24333     O
O      0.81681   0.5523  0.75667     O
O      0.81681  0.74333   0.0523     O
O      0.81681  0.74333   0.9477     O
O      0.81681  0.75667   0.4477     O
O      0.81681  0.75667   0.5523     O
O      0.81681   0.9477  0.25667     O
O      0.81681   0.9477  0.74333     O
C      0.82324   0.1122  0.32324     C
C      0.82324   0.1122  0.67676     C
C      0.82324  0.17676   0.3878     C
C      0.82324  0.17676   0.6122     C
C      0.82324  0.32324   0.1122     C
C      0.82324  0.32324   0.8878     C
C      0.82324   0.3878  0.17676     C
C      0.82324   0.3878  0.82324     C
C      0.82324   0.6122  0.17676     C
C      0.82324   0.6122  0.82324     C
C      0.82324  0.67676   0.1122     C
C      0.82324  0.67676   0.8878     C
C      0.82324  0.82324   0.3878     C
C      0.82324  0.82324   0.6122     C
C      0.82324   0.8878  0.32324     C
C      0.82324   0.8878  0.67676     C
C       0.8664   0.1336   0.3017     C
C       0.8664   0.1336   0.6983     C
C       0.8664   0.1983   0.3664     C
C       0.8664   0.1983   0.6336     C
C       0.8664   0.3017   0.1336     C
C       0.8664   0.3017   0.8664     C
C       0.8664   0.3664   0.1983     C
C       0.8664   0.3664   0.8017     C
C       0.8664   0.6336   0.1983     C
C       0.8664   0.6336   0.8017     C
C       0.8664   0.6983   0.1336     C
C       0.8664   0.6983   0.8664     C
C       0.8664   0.8017   0.3664     C
C       0.8664   0.8017   0.6336     C
C       0.8664   0.8664   0.3017     C
C       0.8664   0.8664   0.6983     C
C       0.8878  0.17676  0.32324     C
C       0.8878  0.17676  0.67676     C
C       0.8878  0.32324  0.17676     C
C       0.8878  0.32324  0.82324     C
C       0.8878  0.67676  0.17676     C
C       0.8878  0.67676  0.82324     C
C       0.8878  0.82324  0.32324     C
C       0.8878  0.82324  0.67676     C
C       0.9311  0.20248  0.29752     C
C       0.9311  0.20248  0.70248     C
C       0.9311  0.29752  0.20248     C
C       0.9311  0.29752  0.79752     C
C       0.9311  0.70248  0.20248     C
C       0.9311  0.70248  0.79752     C
C       0.9311  0.79752  0.29752     C
C       0.9311  0.79752  0.70248     C
O       0.9477  0.18319  0.25667     O
O       0.9477  0.18319  0.74333     O
O       0.9477  0.24333  0.31681     O
O       0.9477  0.24333  0.68319     O
O       0.9477  0.25667  0.18319     O
O       0.9477  0.25667  0.81681     O
O       0.9477  0.31681  0.24333     O
O       0.9477  0.31681  0.75667     O
O       0.9477  0.68319  0.24333     O
O       0.9477  0.68319  0.75667     O
O       0.9477  0.74333  0.18319     O
O       0.9477  0.74333  0.81681     O
O       0.9477  0.75667  0.31681     O
O       0.9477  0.75667  0.68319     O
O       0.9477  0.81681  0.25667     O
O       0.9477  0.81681  0.74333     O
