data_I
_chemical_name_common  '/home/zhangsd/repos/MofS-CGCNN/ML/data/WS24/clean_cifs/SUTBIT'
_cell_length_a  6.76550
_cell_length_b 13.46480
_cell_length_c 13.63790
_cell_angle_alpha 119.58100
_cell_angle_beta  104.36200
_cell_angle_gamma 90.00010
_space_group_name_H-M_alt      'P 1'


loop_
_space_group_symop_operation_xyz
  'x, y, z' 

loop_
_atom_site_label
_atom_site_fract_x
_atom_site_fract_y
_atom_site_fract_z
_atom_site_type_symbol
Ni         0.0      0.5      0.5    Ni
C      0.02127  0.48548  0.71728     C
C      0.05399  0.50554  0.10798     C
H      0.08766  0.76359   0.7508     H
N      0.09108  0.51967  0.38318     N
C      0.11031  0.51133  0.22062     C
C      0.15094  0.49723  0.94602     C
H      0.15503  0.91378  0.90912     H
H      0.16314  0.48721   0.7508     H
C      0.19601   0.7318  0.71728     C
C      0.20492  0.50277  0.05398     C
N       0.2079  0.63649  0.61682     N
H      0.24591  0.08622  0.09088     H
H      0.25409  0.49534  0.90912     H
N       0.2921  0.51967  0.38318     N
C      0.29508  0.94879  0.94602     C
C      0.30399  0.51452  0.28272     C
H      0.33686  0.23641   0.2492     H
H      0.34497  0.50466  0.09088     H
C      0.34906  0.05121  0.05398     C
C      0.38969  0.79071  0.77938     C
N      0.40892  0.63649  0.61682     N
H      0.41234  0.51279   0.2492     H
C      0.44601  0.89756  0.89202     C
C      0.47873   0.2682  0.28272     C
Ni         0.5      0.5      0.5    Ni
C      0.52127   0.7318  0.71728     C
C      0.55399  0.10244  0.10798     C
H      0.58766  0.48721   0.7508     H
N      0.59108  0.36351  0.38318     N
C      0.61031  0.20929  0.22062     C
C      0.65094  0.94879  0.94602     C
H      0.65503  0.49534  0.90912     H
H      0.66314  0.76359   0.7508     H
C      0.69601  0.48548  0.71728     C
C      0.70492  0.05121  0.05398     C
N       0.7079  0.48033  0.61682     N
H      0.74591  0.50466  0.09088     H
H      0.75409  0.91378  0.90912     H
N       0.7921  0.36351  0.38318     N
C      0.79508  0.49723  0.94602     C
C      0.80399   0.2682  0.28272     C
H      0.83686  0.51279   0.2492     H
H      0.84497  0.08622  0.09088     H
C      0.84906  0.50277  0.05398     C
C      0.88969  0.48867  0.77938     C
N      0.90892  0.48033  0.61682     N
H      0.91234  0.23641   0.2492     H
C      0.94601  0.49446  0.89202     C
C      0.97873  0.51452  0.28272     C
