data_I
_chemical_name_common  '/home/zhangsd/repos/MofS-CGCNN/ML/data/WS24/clean_cifs/SUTJOI'
_cell_length_a  9.11420
_cell_length_b 10.05300
_cell_length_c 18.39200
_cell_angle_alpha 75.75000
_cell_angle_beta  79.12000
_cell_angle_gamma 82.05000
_space_group_name_H-M_alt      'P 1'


loop_
_space_group_symop_operation_xyz
  'x, y, z' 

loop_
_atom_site_label
_atom_site_fract_x
_atom_site_fract_y
_atom_site_fract_z
_atom_site_type_symbol
C       0.0042   0.4393  0.88845     C
H       0.0068   0.9353   0.2832     H
C       0.0091   0.8637  0.99309     C
C       0.0134   0.7181  0.98193     C
Ni     0.01742  0.38645 0.268725    Ni
C       0.0207   0.6591  0.55604     C
H       0.0351   0.4141   0.4395     H
C       0.0399   0.0286  0.06229     C
O      0.04016   0.1858  0.24921     O
C       0.0472   0.8941  0.05575     C
C       0.0498   0.3196  0.71274     C
N       0.0569   0.6981  0.61565     N
O       0.0572   0.6791  0.32033     O
H        0.067   0.7359    0.441     H
H       0.0684    0.047   0.1045     H
N       0.0716   0.6105  0.04157     N
H       0.0752   0.7122   0.9335     H
C       0.0768   0.7409  0.48962     C
H       0.0782   0.8228   0.0942     H
C       0.0815   0.0607  0.73602     C
N       0.0824  0.47475  0.15409     N
H       0.0874   0.2993   0.0205     H
O       0.0923  0.42461  0.72273     O
C        0.096   0.8052  0.75881     C
H       0.1053   0.4152   0.8727     H
C       0.1351   0.8037  0.58562     C
C       0.1358   0.1825  0.73927     C
N       0.1512   0.8329  0.50896     N
H       0.1542    0.036   0.4557     H
C        0.159   0.9349  0.76131     C
H       0.1744   0.8522   0.6133     H
O      0.17823  0.69417   0.7613     O
C       0.2167   0.5494  0.04128     C
C       0.2214   0.4657  0.11064     C
C       0.2239   0.9537   0.4564     C
N       0.2331   0.3682  0.29187     N
H       0.2466   0.9382   0.4053     H
C       0.2671   0.1737  0.76716     C
H        0.276    0.113   0.5427     H
H       0.2801   0.4455   0.5794     H
H       0.2803   0.5545   0.2918     H
H       0.2913   0.1592   0.3096     H
C       0.2925   0.9253  0.78926     C
H        0.296   0.5633    0.001     H
H       0.3034   0.2543   0.7696     H
H       0.3056   0.4108   0.1264     H
C       0.3119   0.4607  0.30055     C
H       0.3137   0.4227    0.457     H
C       0.3182   0.2448  0.31023     C
H       0.3438   0.8396   0.8057     H
C       0.3486   0.0459  0.79223     C
H       0.3499   0.5665   0.6689     H
H       0.3501    0.064   0.1368     H
C       0.3659   0.9765  0.47984     C
C       0.3663   0.0671  0.52487     C
C       0.3698   0.4674   0.5476     C
H         0.37   0.9449   0.0328     H
H       0.3767   0.8477   0.9339     H
C       0.3892   0.4544  0.47412     C
H       0.3896   0.0658   0.9609     H
C         0.44   0.9821    0.988     C
N       0.4417   0.4069  0.32309     N
C       0.4471   0.2674  0.32929     C
H       0.4476   0.1505   0.1658     H
C       0.4493   0.5202  0.65753     C
H       0.4507   0.4275   0.6893     H
C       0.4523   0.0778   0.1389     C
H       0.4691   0.2028   0.0384     H
C       0.4718   0.8775   0.9368     C
H       0.4754   0.7987   0.6562     H
C       0.4775   0.5116   0.5759     C
O       0.4794   0.0472   0.8182     O
H       0.4925   0.1547   0.5739     H
C       0.4962   0.0914  0.54415     C
C       0.5038   0.9086  0.45585     C
H       0.5075   0.8453   0.4261     H
O       0.5206   0.9528   0.1818     O
C       0.5225   0.4884   0.4241     C
H       0.5246   0.2013   0.3438     H
C       0.5282   0.1225   0.0632     C
H       0.5309   0.7972   0.9616     H
C       0.5477   0.9222   0.8611     C
H       0.5493   0.5725   0.3107     H
C       0.5507   0.4798  0.34247     C
H       0.5524   0.8495   0.8342     H
C       0.5529   0.7326  0.67071     C
N       0.5583   0.5931  0.67691     N
C         0.56   0.0179    0.012     C
H       0.6104   0.9342   0.0391     H
C       0.6108   0.5456  0.52588     C
H       0.6233   0.1523   0.0661     H
H         0.63   0.0551   0.9672     H
C       0.6302   0.5326   0.4524     C
C       0.6337   0.9329  0.47513     C
C       0.6341   0.0235  0.52016     C
H       0.6499    0.936   0.8632     H
H       0.6501   0.4335   0.3311     H
C       0.6514   0.9541  0.20777     C
H       0.6562   0.1604   0.1943     H
C       0.6818   0.7552  0.68977     C
H       0.6863   0.5773    0.543     H
C       0.6881   0.5393  0.69945     C
H       0.6944   0.5892   0.8736     H
H       0.6966   0.7457   0.2304     H
H        0.704   0.4367    0.999     H
C       0.7075   0.0747  0.21074     C
H       0.7087   0.8408   0.6904     H
H       0.7197   0.4455   0.7082     H
H       0.7199   0.5545   0.4206     H
H        0.724    0.887   0.4573     H
C       0.7329   0.8263  0.23284     C
H       0.7534   0.0618   0.5947     H
N       0.7669   0.6318  0.70813     N
C       0.7761   0.0463   0.5436     C
C       0.7786   0.5343  0.88936     C
C       0.7833   0.4506  0.95872     C
O      0.82177  0.30583   0.2387     O
H       0.8256   0.1478   0.3867     H
C        0.841   0.0651  0.23869     C
H       0.8458    0.964   0.5443     H
N       0.8488   0.1671  0.49104     N
C       0.8642   0.8175  0.26073     C
C       0.8649   0.1963  0.41438     C
H       0.8947   0.5848   0.1273     H
C        0.904   0.1948  0.24119     C
O       0.9077  0.57539  0.27727     O
H       0.9126   0.7007   0.9795     H
N       0.9176  0.52525  0.84591     N
C       0.9185   0.9393  0.26398     C
H       0.9218   0.1772   0.9058     H
C       0.9232   0.2591  0.51038     C
H       0.9248   0.2878   0.0665     H
N       0.9284   0.3895  0.95843     N
H       0.9316    0.953   0.8955     H
H        0.933   0.2641    0.559     H
O       0.9428   0.3209  0.67967     O
N       0.9431   0.3019  0.38435     N
C       0.9502   0.6804  0.28726     C
C       0.9528   0.1059  0.94425     C
O      0.95984   0.8142  0.75079     O
C       0.9601   0.9714  0.93771     C
H       0.9649   0.5859   0.5605     H
C       0.9793   0.3409  0.44396     C
Ni     0.98258  0.61355 0.731275    Ni
C       0.9866   0.2819  0.01807     C
C       0.9909   0.1363  0.00691     C
H       0.9932   0.0647   0.7168     H
C       0.9958   0.5607  0.11155     C
