data_I
_chemical_name_common  '/home/zhangsd/repos/MofS-CGCNN/ML/data/WS24/clean_cifs/SUTJAU'
_cell_length_a 16.95100
_cell_length_b 17.83800
_cell_length_c 16.98100
_cell_angle_alpha 104.66000
_cell_angle_beta  90.00000
_cell_angle_gamma 90.00000
_space_group_name_H-M_alt      'P 1'


loop_
_space_group_symop_operation_xyz
  'x, y, z' 

loop_
_atom_site_label
_atom_site_fract_x
_atom_site_fract_y
_atom_site_fract_z
_atom_site_type_symbol
C      0.00598  0.79034  0.48875     C
C      0.00883   0.8262  0.41772     C
H       0.0119    0.737   0.2004     H
H       0.0153    0.675   0.5601     H
H       0.0171   0.1726   0.4651     H
H       0.0192   0.3214   0.5742     H
C      0.02025  0.77865  0.17779     C
C      0.02245  0.67977  0.76877     C
H        0.023   0.9334   0.8541     H
H       0.0324     0.79   0.3712     H
C      0.03324  0.11259  0.86011     C
H       0.0338   0.9352   0.4868     H
C      0.03725  0.72449   0.9094     C
C      0.03744  0.24623  0.08692     C
C      0.03908  0.31972  0.45545     C
C      0.04078  0.28461  0.52693     C
H       0.0415   0.6549   0.7175     H
C      0.04199  0.90074  0.11613     C
C      0.04215  0.17484  0.82749     C
H       0.0443   0.1624    0.597     H
H        0.052    0.943   0.0949     H
C      0.05284  0.29123  0.22309     C
H       0.0536    0.432   0.5207     H
C      0.05654  0.89957  0.43933     C
H       0.0574   0.2199   0.0365     H
O      0.05754  0.93477  0.37273     O
H       0.0595   0.7802   0.5034     H
H        0.061   0.9043   0.9251     H
H       0.0614   0.0339   0.9658     H
O      0.06196  0.58602  0.20508     O
H       0.0651   0.4945   0.2926     H
H       0.0655   0.2852   0.4097     H
H       0.0662   0.7298    0.957     H
H       0.0671   0.8641    0.724     H
O       0.0695  0.42739  0.40374     O
C      0.06993   0.6873  0.83601     C
C      0.07186  0.93098  0.88306     C
H       0.0751     0.52   0.7311     H
C      0.07817   0.3974   0.4738     C
H       0.0801   0.6057   0.1042     H
H       0.0822   0.0061   0.2667     H
N      0.08273  0.25369  0.15214     N
H       0.0842   0.2982   0.2693     H
C      0.09129   0.5251  0.33746     C
H       0.0914   0.1855   0.8087     H
N      0.09281  0.78962   0.1523     N
H       0.0951   0.2744    0.539     H
H       0.0966   0.3913   0.7631     H
C      0.09816  0.01133  0.92244     C
C      0.10079  0.49827  0.40709     C
C      0.10141   0.0004  0.38217     C
C      0.10323  0.85102   0.1238     C
C      0.10445  0.06361  0.86788     C
O      0.10484  0.62726  0.07462     O
C       0.1077  0.03042  0.31489     C
H       0.1101    0.888   0.4526     H
C      0.11015  0.62107  0.25602     C
C      0.11554  0.85404  0.74499     C
H       0.1176   0.0324   0.8139     H
C      0.12005   0.5961  0.33423     C
C      0.13107  0.88439  0.82434     C
H       0.1315   0.5527   0.8529     H
C      0.13195  0.52591  0.72962     C
H       0.1336   0.3925   0.4857     H
O      0.13654   0.0993  0.17964     O
H       0.1375   0.0155   0.4992     H
C      0.14131  0.03564   0.4539     C
C      0.14163  0.54272  0.47227     C
C      0.14194  0.38605  0.73125     C
H       0.1441   0.5547   0.6898     H
H       0.1485   0.0983   0.8863     H
H        0.149   0.5249   0.5187     H
H       0.1493   0.0087   0.9473     H
C      0.15181  0.09653  0.31927     C
C      0.15225  0.65765  0.82947     C
O      0.15242  0.67685  0.24878     O
H       0.1533    0.613   0.0675     H
H       0.1537   0.8617   0.1081     H
H       0.1552   0.7882   0.6402     H
C      0.16044  0.57037  0.81175     C
H       0.1608   0.2754   0.7285     H
C      0.16086  0.64064  0.40088     C
C      0.16104   0.1316  0.24948     C
C      0.16952  0.44769   0.7045     C
C      0.16952  0.80862  0.69431     C
C      0.17174  0.61373  0.46911     C
H       0.1788    0.675   0.7867     H
H       0.1794   0.6807   0.8801     H
H       0.1808   0.6888   0.3992     H
C      0.18131  0.31684    0.711     C
Ni    0.182658 0.710945 0.146304    Ni
H       0.1842   0.3588    0.105     H
C       0.1864  0.10057  0.45674     C
H       0.1905   0.8177    0.313     H
Ni    0.191085 0.204761 0.147749    Ni
C      0.19131   0.1311  0.39043     C
O       0.1953  0.19709  0.26324     O
C      0.20511  0.87016  0.84873     C
O      0.20822  0.17734  0.02466     O
O      0.20891  0.13392   0.6009     O
H       0.2156    0.558   0.8169     H
H         0.22    0.891   0.9025     H
C      0.22103  0.65649  0.53842     C
H       0.2214   0.1753   0.3934     H
O      0.22591  0.63231  0.60222     O
C      0.22802  0.36558  0.13909     C
C      0.23096  0.13893  0.53211     C
C        0.236  0.43493  0.65769     C
O      0.23948  0.71512  0.03417     O
N      0.24077  0.79194  0.71738     N
C      0.24086  0.82491  0.29446     C
H       0.2432   0.4751   0.1383     H
N      0.24784  0.30594  0.66723     N
N      0.25216  0.30594  0.16723     N
H       0.2568   0.4751   0.6383     H
C      0.25914  0.82491  0.79446     C
N      0.25923  0.79194  0.21738     N
O      0.26052  0.71512  0.53417     O
C        0.264  0.43493  0.15769     C
C      0.26904  0.13893  0.03211     C
C      0.27198  0.36558  0.63909     C
O      0.27409  0.63231  0.10222     O
H       0.2786   0.1753   0.8934     H
C      0.27897  0.65649  0.03842     C
H         0.28    0.891   0.4025     H
H       0.2844    0.558   0.3169     H
O      0.29109  0.13392   0.1009     O
O      0.29178  0.17734  0.52466     O
C      0.29489  0.87016  0.34873     C
O       0.3047  0.19709  0.76324     O
C      0.30869   0.1311  0.89043     C
Ni    0.308915 0.204761 0.647749    Ni
H       0.3095   0.8177    0.813     H
C       0.3136  0.10057  0.95674     C
H       0.3158   0.3588    0.605     H
Ni    0.317342 0.710945 0.646304    Ni
C      0.31869  0.31684    0.211     C
H       0.3192   0.6888   0.8992     H
H       0.3206   0.6807   0.3801     H
H       0.3212    0.675   0.2867     H
C      0.32826  0.61373  0.96911     C
C      0.33048  0.44769   0.2045     C
C      0.33048  0.80862  0.19431     C
C      0.33896   0.1316  0.74948     C
C      0.33914  0.64064  0.90088     C
H       0.3392   0.2754   0.2285     H
C      0.33956  0.57037  0.31175     C
H       0.3448   0.7882   0.1402     H
H       0.3463   0.8617   0.6081     H
H       0.3467    0.613   0.5675     H
O      0.34758  0.67685  0.74878     O
C      0.34775  0.65765  0.32947     C
C      0.34819  0.09653  0.81927     C
H       0.3507   0.0087   0.4473     H
H        0.351   0.5249   0.0187     H
H       0.3515   0.0983   0.3863     H
H       0.3559   0.5547   0.1898     H
C      0.35806  0.38605  0.23125     C
C      0.35837  0.54272  0.97227     C
C      0.35869  0.03564   0.9539     C
H       0.3625   0.0155   0.9992     H
O      0.36346   0.0993  0.67964     O
H       0.3664   0.3925   0.9857     H
C      0.36805  0.52591  0.22962     C
H       0.3685   0.5527   0.3529     H
C      0.36893  0.88439  0.32434     C
C      0.37995   0.5961  0.83423     C
H       0.3824   0.0324   0.3139     H
C      0.38446  0.85404  0.24499     C
C      0.38985  0.62107  0.75602     C
H       0.3899    0.888   0.9526     H
C       0.3923  0.03042  0.81489     C
O      0.39516  0.62726  0.57462     O
C      0.39555  0.06361  0.36788     C
C      0.39677  0.85102   0.6238     C
C      0.39859   0.0004  0.88217     C
C      0.39921  0.49827  0.90709     C
C      0.40184  0.01133  0.42244     C
H       0.4034   0.3913   0.2631     H
H       0.4049   0.2744    0.039     H
N      0.40719  0.78962   0.6523     N
H       0.4086   0.1855   0.3087     H
C      0.40871   0.5251  0.83746     C
H       0.4158   0.2982   0.7693     H
N      0.41727  0.25369  0.65214     N
H       0.4178   0.0061   0.7667     H
H       0.4199   0.6057   0.6042     H
C      0.42183   0.3974   0.9738     C
H       0.4249     0.52   0.2311     H
C      0.42814  0.93098  0.38306     C
C      0.43007   0.6873  0.33601     C
O       0.4305  0.42739  0.90374     O
H       0.4329   0.8641    0.224     H
H       0.4338   0.7298    0.457     H
H       0.4345   0.2852   0.9097     H
H       0.4349   0.4945   0.7926     H
O      0.43804  0.58602  0.70508     O
H       0.4386   0.0339   0.4658     H
H        0.439   0.9043   0.4251     H
H       0.4405   0.7802   0.0034     H
O      0.44246  0.93477  0.87273     O
H       0.4426   0.2199   0.5365     H
C      0.44346  0.89957  0.93933     C
H       0.4464    0.432   0.0207     H
C      0.44716  0.29123  0.72309     C
H        0.448    0.943   0.5949     H
H       0.4557   0.1624    0.097     H
C      0.45785  0.17484  0.32749     C
C      0.45801  0.90074  0.61613     C
H       0.4585   0.6549   0.2175     H
C      0.45922  0.28461  0.02693     C
C      0.46092  0.31972  0.95545     C
C      0.46256  0.24623  0.58692     C
C      0.46275  0.72449   0.4094     C
H       0.4662   0.9352   0.9868     H
C      0.46676  0.11259  0.36011     C
H       0.4676     0.79   0.8712     H
H        0.477   0.9334   0.3541     H
C      0.47755  0.67977  0.26877     C
C      0.47975  0.77865  0.67779     C
H       0.4808   0.3214   0.0742     H
H       0.4829   0.1726   0.9651     H
H       0.4847    0.675   0.0601     H
H       0.4881    0.737   0.7004     H
C      0.49117   0.8262  0.91772     C
C      0.49402  0.79034  0.98875     C
C      0.50598  0.20966  0.01125     C
C      0.50883   0.1738  0.08228     C
H       0.5119    0.263   0.2996     H
H       0.5153    0.325   0.9399     H
H       0.5171   0.8274   0.0349     H
H       0.5192   0.6786   0.9258     H
C      0.52025  0.22135  0.32221     C
C      0.52245  0.32023  0.73123     C
H        0.523   0.0666   0.6459     H
H       0.5324     0.21   0.1288     H
C      0.53324  0.88741  0.63989     C
H       0.5338   0.0648   0.0132     H
C      0.53725  0.27551   0.5906     C
C      0.53744  0.75377  0.41308     C
C      0.53908  0.68028  0.04455     C
C      0.54078  0.71539  0.97307     C
H       0.5415   0.3451   0.7825     H
C      0.54199  0.09926  0.38387     C
C      0.54215  0.82516  0.67251     C
H       0.5443   0.8376    0.903     H
H        0.552    0.057   0.4051     H
C      0.55284  0.70877  0.27691     C
H       0.5536    0.568   0.9793     H
C      0.55654  0.10043  0.06067     C
H       0.5574   0.7801   0.4635     H
O      0.55754  0.06523  0.12727     O
H       0.5595   0.2198   0.9966     H
H        0.561   0.0957   0.5749     H
H       0.5614   0.9661   0.5342     H
O      0.56196  0.41398  0.29492     O
H       0.5651   0.5055   0.2074     H
H       0.5655   0.7148   0.0903     H
H       0.5662   0.2702    0.543     H
H       0.5671   0.1359    0.776     H
O       0.5695  0.57261  0.09626     O
C      0.56993   0.3127  0.66399     C
C      0.57186  0.06902  0.61694     C
H       0.5751     0.48   0.7689     H
C      0.57817   0.6026   0.0262     C
H       0.5801   0.3943   0.3958     H
H       0.5822   0.9939   0.2333     H
N      0.58273  0.74631  0.34786     N
H       0.5842   0.7018   0.2307     H
C      0.59129   0.4749  0.16254     C
H       0.5914   0.8145   0.6913     H
N      0.59281  0.21038   0.3477     N
H       0.5951   0.7256    0.961     H
H       0.5966   0.6087   0.7369     H
C      0.59816  0.98867  0.57756     C
C      0.60079  0.50173  0.09291     C
C      0.60141   0.9996  0.11783     C
C      0.60323  0.14898   0.3762     C
C      0.60445  0.93639  0.63212     C
O      0.60484  0.37274  0.42538     O
C       0.6077  0.96958  0.18511     C
H       0.6101    0.112   0.0474     H
C      0.61015  0.37893  0.24398     C
C      0.61554  0.14596  0.75501     C
H       0.6176   0.9676   0.6861     H
C      0.62005   0.4039  0.16577     C
C      0.63107  0.11561  0.67566     C
H       0.6315   0.4473   0.6471     H
C      0.63195  0.47409  0.77038     C
H       0.6336   0.6075   0.0143     H
O      0.63654   0.9007  0.32036     O
H       0.6375   0.9845   0.0008     H
C      0.64131  0.96436   0.0461     C
C      0.64163  0.45728  0.02773     C
C      0.64194  0.61395  0.76875     C
H       0.6441   0.4453   0.8102     H
H       0.6485   0.9017   0.6137     H
H        0.649   0.4751   0.9813     H
H       0.6493   0.9913   0.5527     H
C      0.65181  0.90347  0.18073     C
C      0.65225  0.34235  0.67053     C
O      0.65242  0.32315  0.25122     O
H       0.6533    0.387   0.4325     H
H       0.6537   0.1383   0.3919     H
H       0.6552   0.2118   0.8598     H
C      0.66044  0.42963  0.68825     C
H       0.6608   0.7246   0.7715     H
C      0.66086  0.35936  0.09912     C
C      0.66104   0.8684  0.25052     C
C      0.66952  0.19138  0.80569     C
C      0.66952  0.55231   0.7955     C
C      0.67174  0.38627  0.03089     C
H       0.6788    0.325   0.7133     H
H       0.6794   0.3193   0.6199     H
H       0.6808   0.3112   0.1008     H
C      0.68131  0.68316    0.789     C
Ni    0.682658 0.289055 0.353696    Ni
H       0.6842   0.6412    0.395     H
C       0.6864  0.89943  0.04326     C
H       0.6905   0.1823    0.187     H
Ni    0.691085 0.795239 0.352251    Ni
C      0.69131   0.8689  0.10957     C
O       0.6953  0.80291  0.23676     O
C      0.70511  0.12984  0.65127     C
O      0.70822  0.82266  0.47534     O
O      0.70891  0.86608   0.8991     O
H       0.7156    0.442   0.6831     H
H         0.72    0.109   0.5975     H
C      0.72103  0.34351  0.96158     C
H       0.7214   0.8247   0.1066     H
O      0.72591  0.36769  0.89778     O
C      0.72802  0.63442  0.36091     C
C      0.73096  0.86107  0.96789     C
C        0.736  0.56507  0.84231     C
O      0.73948  0.28488  0.46583     O
N      0.74077  0.20806  0.78262     N
C      0.74086  0.17509  0.20554     C
H       0.7432   0.5249   0.3617     H
N      0.74784  0.69406  0.83277     N
N      0.75216  0.69406  0.33277     N
H       0.7568   0.5249   0.8617     H
C      0.75914  0.17509  0.70554     C
N      0.75923  0.20806  0.28262     N
O      0.76052  0.28488  0.96583     O
C        0.764  0.56507  0.34231     C
C      0.76904  0.86107  0.46789     C
C      0.77198  0.63442  0.86091     C
O      0.77409  0.36769  0.39778     O
H       0.7786   0.8247   0.6066     H
C      0.77897  0.34351  0.46158     C
H         0.78    0.109   0.0975     H
H       0.7844    0.442   0.1831     H
O      0.79109  0.86608   0.3991     O
O      0.79178  0.82266  0.97534     O
C      0.79489  0.12984  0.15127     C
O       0.8047  0.80291  0.73676     O
C      0.80869   0.8689  0.60957     C
Ni    0.808915 0.795239 0.852251    Ni
H       0.8095   0.1823    0.687     H
C       0.8136  0.89943  0.54326     C
H       0.8158   0.6412    0.895     H
Ni    0.817342 0.289055 0.853696    Ni
C      0.81869  0.68316    0.289     C
H       0.8192   0.3112   0.6008     H
H       0.8206   0.3193   0.1199     H
H       0.8212    0.325   0.2133     H
C      0.82826  0.38627  0.53089     C
C      0.83048  0.19138  0.30569     C
C      0.83048  0.55231   0.2955     C
C      0.83896   0.8684  0.75052     C
C      0.83914  0.35936  0.59912     C
H       0.8392   0.7246   0.2715     H
C      0.83956  0.42963  0.18825     C
H       0.8448   0.2118   0.3598     H
H       0.8463   0.1383   0.8919     H
H       0.8467    0.387   0.9325     H
O      0.84758  0.32315  0.75122     O
C      0.84775  0.34235  0.17053     C
C      0.84819  0.90347  0.68073     C
H       0.8507   0.9913   0.0527     H
H        0.851   0.4751   0.4813     H
H       0.8515   0.9017   0.1137     H
H       0.8559   0.4453   0.3102     H
C      0.85806  0.61395  0.26875     C
C      0.85837  0.45728  0.52773     C
C      0.85869  0.96436   0.5461     C
H       0.8625   0.9845   0.5008     H
O      0.86346   0.9007  0.82036     O
H       0.8664   0.6075   0.5143     H
C      0.86805  0.47409  0.27038     C
H       0.8685   0.4473   0.1471     H
C      0.86893  0.11561  0.17566     C
C      0.87995   0.4039  0.66577     C
H       0.8824   0.9676   0.1861     H
C      0.88446  0.14596  0.25501     C
C      0.88985  0.37893  0.74398     C
H       0.8899    0.112   0.5474     H
C       0.8923  0.96958  0.68511     C
O      0.89516  0.37274  0.92538     O
C      0.89555  0.93639  0.13212     C
C      0.89677  0.14898   0.8762     C
C      0.89859   0.9996  0.61783     C
C      0.89921  0.50173  0.59291     C
C      0.90184  0.98867  0.07756     C
H       0.9034   0.6087   0.2369     H
H       0.9049   0.7256    0.461     H
N      0.90719  0.21038   0.8477     N
H       0.9086   0.8145   0.1913     H
C      0.90871   0.4749  0.66254     C
H       0.9158   0.7018   0.7307     H
N      0.91727  0.74631  0.84786     N
H       0.9178   0.9939   0.7333     H
H       0.9199   0.3943   0.8958     H
C      0.92183   0.6026   0.5262     C
H       0.9249     0.48   0.2689     H
C      0.92814  0.06902  0.11694     C
C      0.93007   0.3127  0.16399     C
O       0.9305  0.57261  0.59626     O
H       0.9329   0.1359    0.276     H
H       0.9338   0.2702    0.043     H
H       0.9345   0.7148   0.5903     H
H       0.9349   0.5055   0.7074     H
O      0.93804  0.41398  0.79492     O
H       0.9386   0.9661   0.0342     H
H        0.939   0.0957   0.0749     H
H       0.9405   0.2198   0.4966     H
O      0.94246  0.06523  0.62727     O
H       0.9426   0.7801   0.9635     H
C      0.94346  0.10043  0.56067     C
H       0.9464    0.568   0.4793     H
C      0.94716  0.70877  0.77691     C
H        0.948    0.057   0.9051     H
H       0.9557   0.8376    0.403     H
C      0.95785  0.82516  0.17251     C
C      0.95801  0.09926  0.88387     C
H       0.9585   0.3451   0.2825     H
C      0.95922  0.71539  0.47307     C
C      0.96092  0.68028  0.54455     C
C      0.96256  0.75377  0.91308     C
C      0.96275  0.27551   0.0906     C
H       0.9662   0.0648   0.5132     H
C      0.96676  0.88741  0.13989     C
H       0.9676     0.21   0.6288     H
H        0.977   0.0666   0.1459     H
C      0.97755  0.32023  0.23123     C
C      0.97975  0.22135  0.82221     C
H       0.9808   0.6786   0.4258     H
H       0.9829   0.8274   0.5349     H
H       0.9847    0.325   0.4399     H
H       0.9881    0.263   0.7996     H
C      0.99117   0.1738  0.58228     C
C      0.99402  0.20966  0.51125     C
