data_I
_chemical_name_common  '/home/zhangsd/repos/MofS-CGCNN/ML/data/WS24/clean_cifs/TAQYER'
_cell_length_a  3.52650
_cell_length_b  8.53708
_cell_length_c 11.55800
_cell_angle_alpha 100.53509
_cell_angle_beta  90.00000
_cell_angle_gamma 101.91968
_space_group_name_H-M_alt      'P 1'


loop_
_space_group_symop_operation_xyz
  'x, y, z' 

loop_
_atom_site_label
_atom_site_fract_x
_atom_site_fract_y
_atom_site_fract_z
_atom_site_type_symbol
O      0.08672  0.17344    0.528     O
H       0.1879   0.7652   0.8812     H
V      0.19109  0.38218  0.55887     V
H       0.2024   0.7678   0.6847     H
H       0.2342   0.7786   0.2551     H
H       0.2456    0.767   0.0613     H
O      0.29447  0.58894   0.4889     O
C        0.314   0.8584   0.8551     C
C       0.3228   0.8614   0.7368     C
C       0.3485   0.8724   0.2276     C
C       0.3496   0.8652   0.1109     C
H       0.4227   0.2348   0.1188     H
H       0.4346   0.2322   0.3153     H
C       0.4556   0.1416   0.1449     C
H       0.4556   0.2214   0.7449     H
C       0.4614   0.1386   0.2632     C
C       0.4761   0.1276   0.7724     C
H       0.4786    0.233   0.9387     H
C       0.4844   0.1348   0.8891     C
N      0.49623  0.99246   0.6913     N
C      0.49954  0.99908   0.9379     C
Mn         0.5      0.0      0.5    Mn
C      0.50046  0.00092   0.0621     C
N      0.50377  0.00754   0.3087     N
H       0.5214    0.767   0.0613     H
C       0.5386   0.8614   0.7368     C
H       0.5444   0.7786   0.2551     H
C       0.5444   0.8584   0.8551     C
H       0.5654   0.7678   0.6847     H
H       0.5773   0.7652   0.8812     H
C       0.6772   0.1386   0.2632     C
C        0.686   0.1416   0.1449     C
O      0.70553  0.41106   0.5111     O
H       0.7544    0.233   0.9387     H
H       0.7658   0.2214   0.7449     H
H       0.7976   0.2322   0.3153     H
V      0.80891  0.61782  0.44113     V
H       0.8121   0.2348   0.1188     H
O      0.91328  0.82656    0.472     O
