data_I
_chemical_name_common  '/home/zhangsd/repos/MofS-CGCNN/ML/data/WS24/clean_cifs/TEWFOS'
_cell_length_a 14.79320
_cell_length_b 16.78850
_cell_length_c 27.77250
_cell_angle_alpha 90.00000
_cell_angle_beta  90.00000
_cell_angle_gamma 90.00000
_space_group_name_H-M_alt      'P 1'


loop_
_space_group_symop_operation_xyz
  'x, y, z' 

loop_
_atom_site_label
_atom_site_fract_x
_atom_site_fract_y
_atom_site_fract_z
_atom_site_type_symbol
H       0.0082   0.0635   0.6989     H
H       0.0082   0.4365   0.1989     H
H       0.0082   0.5635   0.3011     H
H       0.0082   0.9365   0.8011     H
C       0.0227   0.0103  0.45298     C
C       0.0227   0.4897  0.95298     C
C       0.0227   0.5103  0.54702     C
C       0.0227   0.9897  0.04702     C
C       0.0257   0.0258  0.40031     C
C       0.0257   0.4742  0.90031     C
C       0.0257   0.5258  0.59969     C
C       0.0257   0.9742  0.09969     C
H       0.0369   0.0848   0.8193     H
H       0.0369   0.4152   0.3193     H
H       0.0369   0.5848   0.1807     H
H       0.0369   0.9152   0.6807     H
C       0.0462  0.24195  0.35572     C
C       0.0462   0.2424  0.44208     C
C       0.0462   0.2576  0.94208     C
C       0.0462  0.25805  0.85572     C
C       0.0462  0.74195  0.64428     C
C       0.0462   0.7424  0.55792     C
C       0.0462   0.7576  0.05792     C
C       0.0462  0.75805  0.14428     C
N       0.0609  0.05077  0.88777     N
N       0.0609  0.44923  0.38777     N
N       0.0609  0.55077  0.11223     N
N       0.0609  0.94923  0.61223     N
C       0.0648   0.0263  0.96926     C
C       0.0648   0.4737  0.46926     C
C       0.0648   0.5263  0.03074     C
C       0.0648   0.9737  0.53074     C
O      0.06503  0.18503  0.27798     O
O      0.06503  0.31497  0.77798     O
O      0.06503  0.68503  0.72202     O
O      0.06503  0.81497  0.22202     O
H       0.0716   0.1789   0.7309     H
H       0.0716   0.3211   0.2309     H
H       0.0716   0.6789   0.2691     H
H       0.0716   0.8211   0.7691     H
C        0.072   0.0691  0.70062     C
C        0.072   0.4309  0.20062     C
C        0.072   0.5691  0.29938     C
C        0.072   0.9309  0.79938     C
H       0.0779   0.2371   0.4717     H
H       0.0779   0.2629   0.9717     H
H       0.0779   0.7371   0.5283     H
H       0.0779   0.7629   0.0283     H
O      0.08824  0.01866  0.37253     O
O      0.08824  0.48134  0.87253     O
O      0.08824  0.51866  0.62747     O
O      0.08824  0.98134  0.12747     O
C       0.0893  0.06619  0.83845     C
C       0.0893  0.43381  0.33845     C
C       0.0893  0.56619  0.16155     C
C       0.0893  0.93381  0.66155     C
C       0.0905    0.016  0.01655     C
C       0.0905    0.484  0.51655     C
C       0.0905    0.516  0.98345     C
C       0.0905    0.984  0.48345     C
C       0.0914   0.2351  0.39913     C
C       0.0914   0.2649  0.89913     C
C       0.0914   0.7351  0.60087     C
C       0.0914   0.7649  0.10087     C
C       0.0972   0.2282  0.30926     C
C       0.0972   0.2718  0.80926     C
C       0.0972   0.7282  0.69074     C
C       0.0972   0.7718  0.19074     C
C       0.1105   0.1378  0.71977     C
C       0.1105   0.3622  0.21977     C
C       0.1105   0.6378  0.28023     C
C       0.1105   0.8622  0.78023     C
C       0.1198   0.0515  0.92698     C
C       0.1198   0.4485  0.42698     C
C       0.1198   0.5515  0.07302     C
C       0.1198   0.9485  0.57302     C
C       0.1281  0.00902  0.68415     C
C       0.1281  0.49098  0.18415     C
C       0.1281  0.50902  0.31585     C
C       0.1281  0.99098  0.81585     C
H       0.1356   0.1087   0.8382     H
H       0.1356   0.3913   0.3382     H
H       0.1356   0.6087   0.1618     H
H       0.1356   0.8913   0.6618     H
H       0.1502   0.0261   0.0274     H
H       0.1502   0.4739   0.5274     H
H       0.1502   0.5261   0.9726     H
H       0.1502   0.9739   0.4726     H
H       0.1547   0.2253   0.3992     H
H       0.1547   0.2747   0.8992     H
H       0.1547   0.7253   0.6008     H
H       0.1547   0.7747   0.1008     H
O      0.17539  0.23776   0.8073     O
O      0.17539  0.26224   0.3073     O
O      0.17539  0.73776   0.1927     O
O      0.17539  0.76224   0.6927     O
H       0.1834   0.0965   0.2912     H
H       0.1834   0.4035   0.7912     H
H       0.1834   0.5965   0.7088     H
H       0.1834   0.9035   0.2088     H
N       0.1988  0.14826  0.72306     N
N       0.1988  0.35174  0.22306     N
N       0.1988  0.64826  0.27694     N
N       0.1988  0.85174  0.77694     N
O      0.19895  0.06903  0.92549     O
O      0.19895  0.43097  0.42549     O
O      0.19895  0.56903  0.07451     O
O      0.19895  0.93097  0.57451     O
C       0.2195   0.0202  0.68729     C
C       0.2195   0.4798  0.18729     C
C       0.2195   0.5202  0.31271     C
C       0.2195   0.9798  0.81271     C
H       0.2403   0.0198   0.1761     H
H       0.2403   0.4802   0.6761     H
H       0.2403   0.5198   0.8239     H
H       0.2403   0.9802   0.3239     H
C       0.2471   0.0897  0.29325     C
C       0.2471   0.4103  0.79325     C
C       0.2471   0.5897  0.70675     C
C       0.2471   0.9103  0.20675     C
Cu        0.25     0.25     0.25    Cu
Cu        0.25     0.25     0.75    Cu
Cu        0.25     0.75     0.25    Cu
Cu        0.25     0.75     0.75    Cu
C       0.2529   0.0897  0.70675     C
C       0.2529   0.4103  0.20675     C
C       0.2529   0.5897  0.29325     C
C       0.2529   0.9103  0.79325     C
H       0.2597   0.0198   0.8239     H
H       0.2597   0.4802   0.3239     H
H       0.2597   0.5198   0.1761     H
H       0.2597   0.9802   0.6761     H
C       0.2805   0.0202  0.31271     C
C       0.2805   0.4798  0.81271     C
C       0.2805   0.5202  0.68729     C
C       0.2805   0.9798  0.18729     C
O      0.30105  0.06903  0.07451     O
O      0.30105  0.43097  0.57451     O
O      0.30105  0.56903  0.92549     O
O      0.30105  0.93097  0.42549     O
N       0.3012  0.14826  0.27694     N
N       0.3012  0.35174  0.77694     N
N       0.3012  0.64826  0.72306     N
N       0.3012  0.85174  0.22306     N
H       0.3166   0.0965   0.7088     H
H       0.3166   0.4035   0.2088     H
H       0.3166   0.5965   0.2912     H
H       0.3166   0.9035   0.7912     H
O      0.32461  0.23776   0.1927     O
O      0.32461  0.26224   0.6927     O
O      0.32461  0.73776   0.8073     O
O      0.32461  0.76224   0.3073     O
H       0.3453   0.2253   0.6008     H
H       0.3453   0.2747   0.1008     H
H       0.3453   0.7253   0.3992     H
H       0.3453   0.7747   0.8992     H
H       0.3498   0.0261   0.9726     H
H       0.3498   0.4739   0.4726     H
H       0.3498   0.5261   0.0274     H
H       0.3498   0.9739   0.5274     H
H       0.3644   0.1087   0.1618     H
H       0.3644   0.3913   0.6618     H
H       0.3644   0.6087   0.8382     H
H       0.3644   0.8913   0.3382     H
C       0.3719  0.00902  0.31585     C
C       0.3719  0.49098  0.81585     C
C       0.3719  0.50902  0.68415     C
C       0.3719  0.99098  0.18415     C
C       0.3802   0.0515  0.07302     C
C       0.3802   0.4485  0.57302     C
C       0.3802   0.5515  0.92698     C
C       0.3802   0.9485  0.42698     C
C       0.3895   0.1378  0.28023     C
C       0.3895   0.3622  0.78023     C
C       0.3895   0.6378  0.71977     C
C       0.3895   0.8622  0.21977     C
C       0.4028   0.2282  0.69074     C
C       0.4028   0.2718  0.19074     C
C       0.4028   0.7282  0.30926     C
C       0.4028   0.7718  0.80926     C
C       0.4086   0.2351  0.60087     C
C       0.4086   0.2649  0.10087     C
C       0.4086   0.7351  0.39913     C
C       0.4086   0.7649  0.89913     C
C       0.4095    0.016  0.98345     C
C       0.4095    0.484  0.48345     C
C       0.4095    0.516  0.01655     C
C       0.4095    0.984  0.51655     C
C       0.4107  0.06619  0.16155     C
C       0.4107  0.43381  0.66155     C
C       0.4107  0.56619  0.83845     C
C       0.4107  0.93381  0.33845     C
O      0.41176  0.01866  0.62747     O
O      0.41176  0.48134  0.12747     O
O      0.41176  0.51866  0.37253     O
O      0.41176  0.98134  0.87253     O
H       0.4221   0.2371   0.5283     H
H       0.4221   0.2629   0.0283     H
H       0.4221   0.7371   0.4717     H
H       0.4221   0.7629   0.9717     H
C        0.428   0.0691  0.29938     C
C        0.428   0.4309  0.79938     C
C        0.428   0.5691  0.70062     C
C        0.428   0.9309  0.20062     C
H       0.4284   0.1789   0.2691     H
H       0.4284   0.3211   0.7691     H
H       0.4284   0.6789   0.7309     H
H       0.4284   0.8211   0.2309     H
O      0.43497  0.18503  0.72202     O
O      0.43497  0.31497  0.22202     O
O      0.43497  0.68503  0.27798     O
O      0.43497  0.81497  0.77798     O
C       0.4352   0.0263  0.03074     C
C       0.4352   0.4737  0.53074     C
C       0.4352   0.5263  0.96926     C
C       0.4352   0.9737  0.46926     C
N       0.4391  0.05077  0.11223     N
N       0.4391  0.44923  0.61223     N
N       0.4391  0.55077  0.88777     N
N       0.4391  0.94923  0.38777     N
C       0.4538  0.24195  0.64428     C
C       0.4538   0.2424  0.55792     C
C       0.4538   0.2576  0.05792     C
C       0.4538  0.25805  0.14428     C
C       0.4538  0.74195  0.35572     C
C       0.4538   0.7424  0.44208     C
C       0.4538   0.7576  0.94208     C
C       0.4538  0.75805  0.85572     C
H       0.4631   0.0848   0.1807     H
H       0.4631   0.4152   0.6807     H
H       0.4631   0.5848   0.8193     H
H       0.4631   0.9152   0.3193     H
C       0.4743   0.0258  0.59969     C
C       0.4743   0.4742  0.09969     C
C       0.4743   0.5258  0.40031     C
C       0.4743   0.9742  0.90031     C
C       0.4773   0.0103  0.54702     C
C       0.4773   0.4897  0.04702     C
C       0.4773   0.5103  0.45298     C
C       0.4773   0.9897  0.95298     C
H       0.4918   0.0635   0.3011     H
H       0.4918   0.4365   0.8011     H
H       0.4918   0.5635   0.6989     H
H       0.4918   0.9365   0.1989     H
H       0.5082   0.0635   0.8011     H
H       0.5082   0.4365   0.3011     H
H       0.5082   0.5635   0.1989     H
H       0.5082   0.9365   0.6989     H
C       0.5227   0.0103  0.04702     C
C       0.5227   0.4897  0.54702     C
C       0.5227   0.5103  0.95298     C
C       0.5227   0.9897  0.45298     C
C       0.5257   0.0258  0.09969     C
C       0.5257   0.4742  0.59969     C
C       0.5257   0.5258  0.90031     C
C       0.5257   0.9742  0.40031     C
H       0.5369   0.0848   0.6807     H
H       0.5369   0.4152   0.1807     H
H       0.5369   0.5848   0.3193     H
H       0.5369   0.9152   0.8193     H
C       0.5462  0.24195  0.14428     C
C       0.5462   0.2424  0.05792     C
C       0.5462   0.2576  0.55792     C
C       0.5462  0.25805  0.64428     C
C       0.5462  0.74195  0.85572     C
C       0.5462   0.7424  0.94208     C
C       0.5462   0.7576  0.44208     C
C       0.5462  0.75805  0.35572     C
N       0.5609  0.05077  0.61223     N
N       0.5609  0.44923  0.11223     N
N       0.5609  0.55077  0.38777     N
N       0.5609  0.94923  0.88777     N
C       0.5648   0.0263  0.53074     C
C       0.5648   0.4737  0.03074     C
C       0.5648   0.5263  0.46926     C
C       0.5648   0.9737  0.96926     C
O      0.56503  0.18503  0.22202     O
O      0.56503  0.31497  0.72202     O
O      0.56503  0.68503  0.77798     O
O      0.56503  0.81497  0.27798     O
H       0.5716   0.1789   0.7691     H
H       0.5716   0.3211   0.2691     H
H       0.5716   0.6789   0.2309     H
H       0.5716   0.8211   0.7309     H
C        0.572   0.0691  0.79938     C
C        0.572   0.4309  0.29938     C
C        0.572   0.5691  0.20062     C
C        0.572   0.9309  0.70062     C
H       0.5779   0.2371   0.0283     H
H       0.5779   0.2629   0.5283     H
H       0.5779   0.7371   0.9717     H
H       0.5779   0.7629   0.4717     H
O      0.58824  0.01866  0.12747     O
O      0.58824  0.48134  0.62747     O
O      0.58824  0.51866  0.87253     O
O      0.58824  0.98134  0.37253     O
C       0.5893  0.06619  0.66155     C
C       0.5893  0.43381  0.16155     C
C       0.5893  0.56619  0.33845     C
C       0.5893  0.93381  0.83845     C
C       0.5905    0.016  0.48345     C
C       0.5905    0.484  0.98345     C
C       0.5905    0.516  0.51655     C
C       0.5905    0.984  0.01655     C
C       0.5914   0.2351  0.10087     C
C       0.5914   0.2649  0.60087     C
C       0.5914   0.7351  0.89913     C
C       0.5914   0.7649  0.39913     C
C       0.5972   0.2282  0.19074     C
C       0.5972   0.2718  0.69074     C
C       0.5972   0.7282  0.80926     C
C       0.5972   0.7718  0.30926     C
C       0.6105   0.1378  0.78023     C
C       0.6105   0.3622  0.28023     C
C       0.6105   0.6378  0.21977     C
C       0.6105   0.8622  0.71977     C
C       0.6198   0.0515  0.57302     C
C       0.6198   0.4485  0.07302     C
C       0.6198   0.5515  0.42698     C
C       0.6198   0.9485  0.92698     C
C       0.6281  0.00902  0.81585     C
C       0.6281  0.49098  0.31585     C
C       0.6281  0.50902  0.18415     C
C       0.6281  0.99098  0.68415     C
H       0.6356   0.1087   0.6618     H
H       0.6356   0.3913   0.1618     H
H       0.6356   0.6087   0.3382     H
H       0.6356   0.8913   0.8382     H
H       0.6502   0.0261   0.4726     H
H       0.6502   0.4739   0.9726     H
H       0.6502   0.5261   0.5274     H
H       0.6502   0.9739   0.0274     H
H       0.6547   0.2253   0.1008     H
H       0.6547   0.2747   0.6008     H
H       0.6547   0.7253   0.8992     H
H       0.6547   0.7747   0.3992     H
O      0.67539  0.23776   0.6927     O
O      0.67539  0.26224   0.1927     O
O      0.67539  0.73776   0.3073     O
O      0.67539  0.76224   0.8073     O
H       0.6834   0.0965   0.2088     H
H       0.6834   0.4035   0.7088     H
H       0.6834   0.5965   0.7912     H
H       0.6834   0.9035   0.2912     H
N       0.6988  0.14826  0.77694     N
N       0.6988  0.35174  0.27694     N
N       0.6988  0.64826  0.22306     N
N       0.6988  0.85174  0.72306     N
O      0.69895  0.06903  0.57451     O
O      0.69895  0.43097  0.07451     O
O      0.69895  0.56903  0.42549     O
O      0.69895  0.93097  0.92549     O
C       0.7195   0.0202  0.81271     C
C       0.7195   0.4798  0.31271     C
C       0.7195   0.5202  0.18729     C
C       0.7195   0.9798  0.68729     C
H       0.7403   0.0198   0.3239     H
H       0.7403   0.4802   0.8239     H
H       0.7403   0.5198   0.6761     H
H       0.7403   0.9802   0.1761     H
C       0.7471   0.0897  0.20675     C
C       0.7471   0.4103  0.70675     C
C       0.7471   0.5897  0.79325     C
C       0.7471   0.9103  0.29325     C
Cu        0.75     0.25     0.25    Cu
Cu        0.75     0.25     0.75    Cu
Cu        0.75     0.75     0.25    Cu
Cu        0.75     0.75     0.75    Cu
C       0.7529   0.0897  0.79325     C
C       0.7529   0.4103  0.29325     C
C       0.7529   0.5897  0.20675     C
C       0.7529   0.9103  0.70675     C
H       0.7597   0.0198   0.6761     H
H       0.7597   0.4802   0.1761     H
H       0.7597   0.5198   0.3239     H
H       0.7597   0.9802   0.8239     H
C       0.7805   0.0202  0.18729     C
C       0.7805   0.4798  0.68729     C
C       0.7805   0.5202  0.81271     C
C       0.7805   0.9798  0.31271     C
O      0.80105  0.06903  0.42549     O
O      0.80105  0.43097  0.92549     O
O      0.80105  0.56903  0.57451     O
O      0.80105  0.93097  0.07451     O
N       0.8012  0.14826  0.22306     N
N       0.8012  0.35174  0.72306     N
N       0.8012  0.64826  0.77694     N
N       0.8012  0.85174  0.27694     N
H       0.8166   0.0965   0.7912     H
H       0.8166   0.4035   0.2912     H
H       0.8166   0.5965   0.2088     H
H       0.8166   0.9035   0.7088     H
O      0.82461  0.23776   0.3073     O
O      0.82461  0.26224   0.8073     O
O      0.82461  0.73776   0.6927     O
O      0.82461  0.76224   0.1927     O
H       0.8453   0.2253   0.8992     H
H       0.8453   0.2747   0.3992     H
H       0.8453   0.7253   0.1008     H
H       0.8453   0.7747   0.6008     H
H       0.8498   0.0261   0.5274     H
H       0.8498   0.4739   0.0274     H
H       0.8498   0.5261   0.4726     H
H       0.8498   0.9739   0.9726     H
H       0.8644   0.1087   0.3382     H
H       0.8644   0.3913   0.8382     H
H       0.8644   0.6087   0.6618     H
H       0.8644   0.8913   0.1618     H
C       0.8719  0.00902  0.18415     C
C       0.8719  0.49098  0.68415     C
C       0.8719  0.50902  0.81585     C
C       0.8719  0.99098  0.31585     C
C       0.8802   0.0515  0.42698     C
C       0.8802   0.4485  0.92698     C
C       0.8802   0.5515  0.57302     C
C       0.8802   0.9485  0.07302     C
C       0.8895   0.1378  0.21977     C
C       0.8895   0.3622  0.71977     C
C       0.8895   0.6378  0.78023     C
C       0.8895   0.8622  0.28023     C
C       0.9028   0.2282  0.80926     C
C       0.9028   0.2718  0.30926     C
C       0.9028   0.7282  0.19074     C
C       0.9028   0.7718  0.69074     C
C       0.9086   0.2351  0.89913     C
C       0.9086   0.2649  0.39913     C
C       0.9086   0.7351  0.10087     C
C       0.9086   0.7649  0.60087     C
C       0.9095    0.016  0.51655     C
C       0.9095    0.484  0.01655     C
C       0.9095    0.516  0.48345     C
C       0.9095    0.984  0.98345     C
C       0.9107  0.06619  0.33845     C
C       0.9107  0.43381  0.83845     C
C       0.9107  0.56619  0.66155     C
C       0.9107  0.93381  0.16155     C
O      0.91176  0.01866  0.87253     O
O      0.91176  0.48134  0.37253     O
O      0.91176  0.51866  0.12747     O
O      0.91176  0.98134  0.62747     O
H       0.9221   0.2371   0.9717     H
H       0.9221   0.2629   0.4717     H
H       0.9221   0.7371   0.0283     H
H       0.9221   0.7629   0.5283     H
C        0.928   0.0691  0.20062     C
C        0.928   0.4309  0.70062     C
C        0.928   0.5691  0.79938     C
C        0.928   0.9309  0.29938     C
H       0.9284   0.1789   0.2309     H
H       0.9284   0.3211   0.7309     H
H       0.9284   0.6789   0.7691     H
H       0.9284   0.8211   0.2691     H
O      0.93497  0.18503  0.77798     O
O      0.93497  0.31497  0.27798     O
O      0.93497  0.68503  0.22202     O
O      0.93497  0.81497  0.72202     O
C       0.9352   0.0263  0.46926     C
C       0.9352   0.4737  0.96926     C
C       0.9352   0.5263  0.53074     C
C       0.9352   0.9737  0.03074     C
N       0.9391  0.05077  0.38777     N
N       0.9391  0.44923  0.88777     N
N       0.9391  0.55077  0.61223     N
N       0.9391  0.94923  0.11223     N
C       0.9538  0.24195  0.85572     C
C       0.9538   0.2424  0.94208     C
C       0.9538   0.2576  0.44208     C
C       0.9538  0.25805  0.35572     C
C       0.9538  0.74195  0.14428     C
C       0.9538   0.7424  0.05792     C
C       0.9538   0.7576  0.55792     C
C       0.9538  0.75805  0.64428     C
H       0.9631   0.0848   0.3193     H
H       0.9631   0.4152   0.8193     H
H       0.9631   0.5848   0.6807     H
H       0.9631   0.9152   0.1807     H
C       0.9743   0.0258  0.90031     C
C       0.9743   0.4742  0.40031     C
C       0.9743   0.5258  0.09969     C
C       0.9743   0.9742  0.59969     C
C       0.9773   0.0103  0.95298     C
C       0.9773   0.4897  0.45298     C
C       0.9773   0.5103  0.04702     C
C       0.9773   0.9897  0.54702     C
H       0.9918   0.0635   0.1989     H
H       0.9918   0.4365   0.6989     H
H       0.9918   0.5635   0.8011     H
H       0.9918   0.9365   0.3011     H
