data_I
_chemical_name_common  '/home/zhangsd/repos/MofS-CGCNN/ML/data/WS24/clean_cifs/TEYHIP'
_cell_length_a 21.43930
_cell_length_b 21.43930
_cell_length_c 21.43930
_cell_angle_alpha 109.47100
_cell_angle_beta  109.47100
_cell_angle_gamma 109.47100
_space_group_name_H-M_alt      'P 1'


loop_
_space_group_symop_operation_xyz
  'x, y, z' 

loop_
_atom_site_label
_atom_site_fract_x
_atom_site_fract_y
_atom_site_fract_z
_atom_site_type_symbol
Cd         0.0      0.0      0.0    Cd
H        0.002   0.3424   0.4184     H
N       0.0062   0.8886   0.9412     N
C       0.0069    0.752   0.8795     C
N       0.0106   0.6837   0.8531     N
H       0.0124    0.315   0.6056     H
C       0.0138   0.4413   0.7467     C
C       0.0157   0.4423   0.2242     C
C       0.0177   0.3929   0.5746     C
H       0.0239   0.4012   0.7369     H
H       0.0328   0.6198     0.44     H
C       0.0363   0.3804   0.2147     C
C       0.0365   0.6659   0.6252     C
C       0.0407   0.1659   0.1294     C
C       0.0444    0.354   0.6022     C
C       0.0459   0.2357   0.1662     C
H       0.0469   0.6828   0.8853     H
N       0.0526   0.6114   0.6176     N
H       0.0545   0.7719   0.6908     H
C       0.0569   0.8752   0.9823     C
C       0.0577   0.5734   0.2819     C
C       0.0578   0.8096   0.9556     C
C       0.0587   0.5725   0.8054     C
N       0.0588   0.4474    0.565     N
H         0.06   0.9672   0.8802     H
N        0.065   0.0588   0.9474     N
C       0.0695   0.7357   0.6898     C
C       0.0725   0.5138   0.2671     C
C       0.0734   0.5157   0.7915     C
C       0.0746   0.0177   0.8929     C
H        0.076   0.1576   0.1596     H
H       0.0811   0.2719   0.2174     H
H       0.0816    0.998   0.1576     H
H       0.0836   0.1596    0.002     H
H        0.087   0.4672   0.4072     H
C       0.0887   0.1294   0.9635     C
O       0.0907   0.3878   0.2653     O
H       0.0928    0.913   0.0328     H
H       0.0932   0.8026   0.9876     H
H       0.0988   0.6227   0.8357     H
C       0.1022   0.0444    0.854     C
H       0.1056   0.0124    0.815     H
C       0.1071   0.6248   0.6817     C
N       0.1114   0.5588   0.4938     N
O       0.1122   0.7029   0.3775     O
H       0.1147   0.2975   0.6616     H
N       0.1176   0.0526   0.1114     N
C       0.1196   0.6559   0.3343     C
H       0.1198    0.587   0.6798     H
C       0.1203   0.1662   0.9305     C
C       0.1205   0.3725   0.6274     C
O       0.1225   0.8878   0.7971     O
H       0.1227   0.5239    0.287     H
C       0.1248   0.5177   0.4431     C
C       0.1252   0.0365   0.1659     C
C       0.1274   0.1205   0.8725     C
C       0.1275    0.748   0.7549     C
C       0.1294   0.4635   0.5887     C
H       0.1359   0.4531   0.8384     H
H       0.1363   0.2174   0.9455     H
C        0.146   0.6904   0.7482     C
N       0.1469   0.3306   0.6575     N
C       0.1559   0.5363   0.8216     C
N       0.1575   0.1469   0.8306     N
H       0.1576   0.6596    0.576     H
H       0.1596    0.502   0.5836     H
H       0.1616   0.1147   0.7975     H
H       0.1643    0.287   0.7631     H
C       0.1657   0.8804   0.8441     C
C       0.1659   0.6294   0.5407     C
C       0.1662   0.4305   0.6203     C
N       0.1694   0.8163   0.8269     N
N       0.1731   0.4894   0.8425     N
O       0.1746   0.2653   0.8775     O
C       0.1784   0.2147   0.8343     C
H       0.1798   0.1198    0.087     H
C       0.1817   0.1071   0.1248     C
H       0.1828   0.6359   0.2975     H
N       0.1837   0.6731   0.3306     N
H        0.185   0.6974   0.7906     H
C       0.1898   0.0695   0.2357     C
C       0.1904   0.5444   0.4422     C
H       0.1908   0.0545   0.2719     H
C       0.1946   0.2671   0.7533     C
H       0.1974   0.5124   0.4068     H
H       0.2025   0.8172   0.8641     H
O       0.2029   0.5907   0.8254     O
C       0.2085   0.2242   0.7819     C
H       0.2094   0.4068   0.8944     H
H        0.213   0.8773   0.9761     H
C       0.2147   0.3343   0.6784     C
H       0.2174   0.4455   0.6363     H
C       0.2181   0.9423   0.9266     C
C       0.2242   0.2819   0.7085     C
H       0.2281   0.8092   0.4455     H
C       0.2329   0.9275   0.9862     C
O       0.2347   0.9093   0.1122     O
C       0.2357   0.6662   0.5459     C
H       0.2369   0.0239   0.9012     H
C       0.2451   0.4931   0.8726     C
C       0.2467   0.0138   0.9413     C
C        0.248   0.6205   0.4931     C
C       0.2482    0.146   0.1904     C
C       0.2518   0.4422   0.8978     C
C        0.252   0.7451   0.3725     C
C       0.2533   0.1946   0.7671     C
C       0.2549   0.1275    0.248     C
H       0.2631   0.1643    0.787     H
C       0.2643   0.8102   0.4305     C
O       0.2653   0.3775   0.6746     O
C       0.2671   0.2533   0.6946     C
H       0.2719   0.7174   0.5811     H
C       0.2758   0.9843   0.0577     C
C       0.2819   0.2085   0.7242     C
H       0.2826   0.9189   0.2281     H
C       0.2853   0.9637   0.1196     C
H        0.287   0.2631   0.6643     H
H       0.2906    0.185   0.1974     H
C       0.2915   0.0734   0.0157     C
O       0.2971   0.1225   0.3878     O
H       0.2975   0.1616   0.6147     H
H       0.3026   0.7094    0.315     H
C       0.3054   0.0587   0.0725     C
H       0.3092   0.5811   0.8637     H
C       0.3096   0.7518    0.354     C
C       0.3102   0.5459   0.8797     C
H        0.315   0.1056   0.5124     H
N       0.3163   0.6469   0.4894     N
H       0.3172   0.6147   0.4531     H
C       0.3183   0.4431   0.9254     C
H       0.3202   0.4072     0.94     H
C       0.3216   0.1559   0.0363     C
O       0.3254   0.2029   0.0907     O
N       0.3269   0.1694   0.3163     N
N       0.3306   0.1575   0.6469     N
C       0.3338   0.9541   0.2643     C
C       0.3341   0.8748   0.4635     C
C       0.3343   0.1784   0.7147     C
H       0.3357   0.0988   0.1227     H
H       0.3384   0.1359   0.9531     H
H       0.3404    0.924   0.3424     H
H       0.3424   0.9184    0.502     H
N       0.3425   0.1731   0.9894     N
C       0.3441   0.1657   0.3804     C
N       0.3531   0.0106   0.1837     N
C        0.354   0.1022   0.5444     C
H       0.3637   0.3092   0.0811     H
H       0.3641   0.2025   0.3172     H
C       0.3706   0.9593   0.3341     C
C       0.3725   0.1274   0.6205     C
C       0.3726   0.2451   0.9931     C
C       0.3748   0.5407   0.9113     C
C       0.3752   0.8183   0.3929     C
H       0.3773   0.6643   0.4012     H
O       0.3775   0.1746   0.7653     O
C       0.3795   0.0069    0.252     C
C       0.3797   0.3102   0.0459     C
H       0.3802     0.06   0.4672     H
C       0.3804   0.7147   0.5363     C
N       0.3824   0.4938    0.935     N
H       0.3853   0.0469   0.1828     H
O       0.3878   0.7653   0.5907     O
N       0.3886   0.8824   0.4474     N
C       0.3929   0.0746   0.5177     C
H       0.3944   0.2094   0.9068     H
C       0.3978   0.2518   0.9422     C
H       0.4012   0.2369   0.5239     H
H       0.4068   0.3944   0.7094     H
H       0.4072     0.44   0.8202     H
O       0.4093   0.6746   0.2971     O
C       0.4113   0.3748   0.0407     C
H        0.413   0.8202   0.3802     H
H       0.4164   0.4184    0.076     H
H       0.4184    0.576   0.9164     H
H       0.4189   0.6363   0.1908     H
H        0.424   0.5836   0.0816     H
C       0.4254   0.3183   0.9431     C
C       0.4266   0.2181   0.4423     C
C       0.4275   0.6946   0.4413     C
C       0.4305   0.1203   0.6662     C
N        0.435   0.3824   0.9938     N
H         0.44   0.3202   0.9072     H
N       0.4412   0.0062   0.3886     N
C       0.4413   0.2467   0.5138     C
C       0.4422   0.3978   0.7518     C
C       0.4423   0.7242   0.5157     C
C       0.4431   0.4254   0.8183     C
H       0.4455   0.1363   0.7174     H
N       0.4474    0.065   0.5588     N
H       0.4531   0.3384   0.6359     H
C       0.4541   0.6203   0.1898     C
C       0.4556   0.0578   0.3096     C
C       0.4593   0.5887   0.1252     C
C       0.4635   0.0887   0.6294     C
C       0.4637   0.6784   0.3441     C
H       0.4672   0.9072    0.587     H
H       0.4761    0.213   0.3773     H
C       0.4823   0.0569   0.3752     C
C       0.4843   0.7085   0.4266     C
C       0.4862   0.2329   0.4275     C
H       0.4876   0.0932   0.3026     H
N       0.4894   0.3425   0.6731     N
C       0.4931   0.3726   0.7451     C
N       0.4938    0.435   0.8824     N
H        0.498   0.9164   0.3404     H
Cd         0.5      0.0      0.5    Cd
Cd         0.5      0.5      0.0    Cd
H        0.502   0.0836   0.6596     H
N       0.5062    0.565   0.1176     N
C       0.5069   0.6274   0.2549     C
N       0.5106   0.6575   0.3269     N
H       0.5124   0.9068   0.6974     H
C       0.5138   0.7671   0.5725     C
C       0.5157   0.2915   0.5734     C
C       0.5177   0.9431   0.6248     C
H       0.5239    0.787   0.6227     H
H       0.5328   0.0928    0.413     H
C       0.5363   0.3216   0.6559     C
C       0.5365   0.9113   0.3706     C
C       0.5407   0.4113   0.8748     C
C       0.5444   0.9422   0.6904     C
C       0.5459   0.3797   0.8102     C
H       0.5469   0.6616   0.3641     H
N       0.5526    0.935   0.4412     N
H       0.5545   0.8637   0.2826     H
C       0.5569   0.5746   0.1817     C
C       0.5577   0.2758   0.4843     C
C       0.5578   0.6022   0.2482     C
C       0.5587   0.7533   0.4862     C
N       0.5588   0.9938   0.6114     N
H         0.56   0.6798   0.0928     H
N        0.565   0.6176   0.0062     N
C       0.5695   0.8797   0.3338     C
C       0.5725   0.3054   0.5587     C
C       0.5734   0.7819   0.5577     C
C       0.5746   0.6817   0.0569     C
H        0.576   0.4164   0.9184     H
H       0.5811   0.3637   0.8092     H
H       0.5816    0.424   0.0836     H
H       0.5836   0.5816    0.924     H
H        0.587   0.1798   0.6198     H
C       0.5887   0.6252   0.9593     C
O       0.5907   0.3254   0.7029     O
H       0.5928     0.56   0.1798     H
H       0.5932   0.6056   0.2906     H
H       0.5988   0.7631   0.4761     H
C       0.6022   0.7482   0.0578     C
H       0.6056   0.7906   0.0932     H
C       0.6071   0.9254   0.4823     C
N       0.6114   0.1176   0.5526     N
O       0.6122   0.2347   0.4093     O
H       0.6147   0.9531   0.8172     H
N       0.6176   0.5062    0.065     N
C       0.6196   0.2853   0.4637     C
H       0.6198     0.94   0.5328     H
C       0.6203   0.6898   0.9541     C
C       0.6205   0.9931    0.748     C
O       0.6225   0.8254   0.2347     O
H       0.6227   0.3357   0.5988     H
C       0.6248   0.1817   0.6071     C
C       0.6252   0.4593   0.0887     C
C       0.6274   0.7549   0.0069     C
C       0.6275   0.8726   0.3795     C
C       0.6294   0.0407   0.6659     C
H       0.6359   0.7975   0.6828     H
H       0.6363   0.6908   0.9189     H
C        0.646   0.8978   0.4556     C
N       0.6469   0.9894   0.8163     N
C       0.6559   0.8343   0.6196     C
N       0.6575   0.8269   0.0106     N
H       0.6576   0.0816    0.498     H
H       0.6596    0.076   0.6576     H
H       0.6616   0.8641   0.0469     H
H       0.6643   0.9012   0.8773     H
C       0.6657   0.8216   0.2853     C
C       0.6659   0.1252   0.5365     C
C       0.6662   0.0459   0.7357     C
N       0.6694   0.8425   0.3531     N
N       0.6731   0.8306   0.6837     N
O       0.6746   0.7971   0.9093     O
C       0.6784   0.8441   0.9637     C
H       0.6798   0.5928     0.06     H
C       0.6817   0.5569   0.0746     C
H       0.6828   0.3853   0.5469     H
N       0.6837   0.3531   0.5106     N
H        0.685   0.8944   0.4876     H
C       0.6898   0.4541   0.1203     C
C       0.6904   0.2482    0.646     C
H       0.6908   0.4189   0.1363     H
C       0.6946   0.9413   0.9275     C
H       0.6974   0.2906    0.685     H
H       0.7025   0.8384   0.3853     H
O       0.7029   0.8775   0.6122     O
C       0.7085   0.9266   0.9843     C
H       0.7094    0.815   0.8026     H
H        0.713   0.7369   0.3357     H
C       0.7147   0.0363   0.8804     C
H       0.7174   0.0811   0.7719     H
C       0.7181   0.7915   0.2758     C
C       0.7242   0.0157   0.9423     C
H       0.7281   0.2826   0.4189     H
C       0.7329   0.7467   0.3054     C
O       0.7347   0.6225   0.3254     O
C       0.7357   0.1898   0.5695     C
H       0.7369   0.8357    0.213     H
C       0.7451   0.8725    0.752     C
C       0.7467   0.8054   0.2329     C
C        0.748   0.2549   0.6275     C
C       0.7482   0.5578   0.1022     C
C       0.7518    0.854   0.8096     C
C        0.752   0.3795   0.5069     C
C       0.7533   0.9862   0.0587     C
C       0.7549   0.5069   0.1274     C
H       0.7631   0.9761   0.0988     H
C       0.7643   0.3338   0.4541     C
O       0.7653   0.0907   0.8878     O
C       0.7671   0.0725   0.0138     C
H       0.7719   0.1908   0.5545     H
C       0.7758   0.7181   0.2915     C
C       0.7819   0.0577   0.0734     C
H       0.7826   0.5545   0.3637     H
C       0.7853   0.6657   0.3216     C
H        0.787   0.1227   0.0239     H
H       0.7906   0.5932   0.1056     H
C       0.7915   0.7758   0.2181     C
O       0.7971   0.4093   0.1746     O
H       0.7975   0.1828   0.1359     H
H       0.8026   0.4876   0.5932     H
C       0.8054   0.7329   0.2467     C
H       0.8092   0.9455   0.7281     H
C       0.8096   0.4556   0.5578     C
C       0.8102   0.9305   0.7643     C
H        0.815   0.3026   0.2094     H
N       0.8163   0.3269   0.6694     N
H       0.8172   0.3641   0.7025     H
C       0.8183   0.8929   0.8752     C
H       0.8202   0.8802    0.913     H
C       0.8216   0.7853   0.1657     C
O       0.8254   0.7347   0.1225     O
N       0.8269   0.5106   0.1575     N
N       0.8306   0.1837   0.1731     N
C       0.8338   0.5695   0.3797     C
C       0.8341   0.3706   0.4593     C
C       0.8343   0.1196   0.1559     C
H       0.8357    0.713   0.2369     H
H       0.8384   0.8853   0.2025     H
H       0.8404    0.498   0.4164     H
H       0.8424   0.3404    0.424     H
N       0.8425   0.8531   0.1694     N
C       0.8441   0.4637   0.1784     C
N       0.8531   0.6694   0.3425     N
C        0.854   0.3096   0.2518     C
H       0.8637   0.7826   0.0545     H
H       0.8641   0.5469   0.1616     H
C       0.8706   0.5365   0.4113     C
C       0.8725    0.252   0.2451     C
C       0.8726   0.8795   0.1275     C
C       0.8748   0.9635   0.8341     C
C       0.8752   0.4823   0.5569     C
H       0.8773   0.4761    0.713     H
O       0.8775   0.1122   0.2029     O
C       0.8795   0.6275   0.3726     C
C       0.8797   0.8338   0.0695     C
H       0.8802    0.413   0.3202     H
C       0.8804   0.3441   0.6657     C
N       0.8824   0.9474   0.8886     N
H       0.8853   0.7025   0.3384     H
O       0.8878   0.2971   0.6225     O
N       0.8886   0.4412   0.5062     N
C       0.8929   0.3752   0.3183     C
H       0.8944   0.9876    0.185     H
C       0.8978   0.9556    0.146     C
H       0.9012   0.3773   0.1643     H
H       0.9068   0.1974   0.0124     H
H       0.9072    0.087   0.9672     H
O       0.9093   0.6122   0.7347     O
C       0.9113   0.8706   0.0365     C
H        0.913   0.5328   0.5928     H
H       0.9164   0.8404    0.998     H
H       0.9184    0.002   0.8424     H
H       0.9189   0.7281   0.7826     H
H        0.924   0.8424   0.8404     H
C       0.9254   0.9823   0.1071     C
C       0.9266   0.4843   0.2085     C
C       0.9275   0.4862   0.7329     C
C       0.9305   0.2643   0.3102     C
N        0.935   0.9412   0.0526     N
H         0.94   0.0328   0.1198     H
N       0.9412   0.5526    0.435     N
C       0.9413   0.4275   0.1946     C
C       0.9422   0.1904   0.0444     C
C       0.9423   0.4266   0.7181     C
C       0.9431   0.1248   0.0177     C
H       0.9455   0.2281   0.3092     H
N       0.9474   0.3886   0.3824     N
H       0.9531   0.3172   0.1147     H
C       0.9541   0.7643   0.8338     C
C       0.9556    0.646   0.3978     C
C       0.9593   0.8341   0.8706     C
C       0.9635   0.3341   0.3748     C
C       0.9637   0.6196   0.7853     C
H       0.9672   0.3802     0.56     H
H       0.9761   0.5988   0.2631     H
C       0.9823   0.6071   0.4254     C
C       0.9843   0.5577   0.7758     C
C       0.9862   0.5587   0.2533     C
H       0.9876    0.685   0.3944     H
N       0.9894   0.3163   0.1469     N
C       0.9931    0.248   0.1205     C
N       0.9938   0.1114   0.0588     N
H        0.998   0.6576   0.5816     H
Cd         1.0      0.5      0.5    Cd
