data_I
_chemical_name_common  '/home/zhangsd/repos/MofS-CGCNN/ML/data/WS24/clean_cifs/TIFCOA'
_cell_length_a 11.68500
_cell_length_b 16.43900
_cell_length_c 25.22000
_cell_angle_alpha 90.00000
_cell_angle_beta  93.48600
_cell_angle_gamma 90.00000
_space_group_name_H-M_alt      'P 1'


loop_
_space_group_symop_operation_xyz
  'x, y, z' 

loop_
_atom_site_label
_atom_site_fract_x
_atom_site_fract_y
_atom_site_fract_z
_atom_site_type_symbol
O       0.0012   0.5202   0.6207     O
O       0.0041   0.7791   0.5584     O
C       0.0068   0.9307   0.8274     C
C       0.0074   0.8547   0.0857     C
F       0.0121   0.7997    0.839     F
C       0.0122   0.4144   0.2978     C
C       0.0143   0.1504   0.2013     C
F       0.0154   0.0168   0.2131     F
O       0.0161   0.7559   0.4413     O
O       0.0163   0.8753    0.039     O
F       0.0169   0.3933   0.0356     F
F       0.0181   0.7412   0.1799     F
O       0.0222   0.0759   0.0769     O
C        0.028   0.4805   0.2564     C
F       0.0282   0.5019   0.9178     F
F       0.0309   0.6488   0.7288     F
Ag     0.03322  0.11123  0.52416    Ag
C       0.0402   0.5816   0.9239     C
Ag     0.04402  0.57343  0.52247    Ag
F       0.0472    0.624   0.8796     F
N       0.0516   0.9899   0.4393     N
F       0.0527   0.8518   0.7581     F
C       0.0575   0.5498   0.6596     C
C       0.0649   0.0612   0.1244     C
O       0.0666   0.1245   0.8846     O
F       0.0743   0.5003   0.7647     F
F       0.0819   0.5416   0.2806     F
F       0.0889   0.4527   0.2181     F
F       0.0953   0.7272   0.0849     F
O        0.097   0.6412   0.4253     O
C       0.0974   0.7165   0.4274     C
C       0.1031   0.7999   0.1078     C
F       0.1041   0.8334   0.3445     F
C       0.1055   0.0299   0.4146     C
C       0.1065   0.7554   0.5672     C
C       0.1104   0.7818   0.1672     C
Ag     0.11404  0.39801  0.58942    Ag
F        0.116   0.8575    0.645     F
F       0.1171    0.851    0.194     F
F       0.1172   0.9303   0.8438     F
F       0.1191   0.3982   0.3146     F
F        0.121   0.1466   0.2221     F
Ag     0.12568  0.30563  0.48914    Ag
Ag     0.12827  0.05222  0.00571    Ag
O       0.1331   0.7383   0.9498     O
O       0.1389    0.684   0.5588     O
C       0.1491   0.4379   0.5005     C
C       0.1493   0.1228   0.7159     C
Ag     0.15486  0.87125  0.96592    Ag
O       0.1604   0.0339   0.1352     O
O       0.1612   0.5629   0.6645     O
N       0.1613   0.3146   0.6562     N
C       0.1615   0.5939   0.9489     C
F       0.1687   0.5424   0.9898     F
F       0.1714   0.7157    0.326     F
C       0.1735   0.0855   0.3833     C
C       0.1852   0.2599   0.6856     C
F        0.186   0.8907   0.5544     F
F        0.191   0.2997   0.9344     F
C       0.1911   0.7832   0.3532     C
Ag     0.19147  0.50414  0.41473    Ag
F       0.1949   0.3867   0.8608     F
C       0.1974   0.6806   0.9619     C
F       0.2001   0.7357   0.1814     F
C        0.202   0.8179   0.5768     C
C       0.2034   0.7613   0.4121     C
F       0.2038   0.2151   0.0813     F
F       0.2062   0.8287    0.099     F
O        0.207   0.1835   0.5128     O
C        0.208   0.2008    0.727     C
F       0.2135    0.318   0.1604     F
F       0.2206   0.8297   0.4395     F
C       0.2206   0.8326   0.6365     C
C       0.2234   0.4828   0.5157     C
F       0.2284   0.5643   0.9126     F
Ag     0.23146  0.05585  0.90849    Ag
C        0.232    0.037   0.3441     C
F       0.2347   0.7572   0.6545     F
F       0.2653   0.2572   0.8455     F
C        0.268    0.537   0.1559     C
Ag     0.26854  0.55585  0.59151    Ag
F       0.2716   0.0643   0.5874     F
C       0.2766   0.9828   0.9843     C
F       0.2794   0.3297   0.0605     F
C       0.2794   0.3326   0.8635     C
F       0.2865    0.818   0.3396     F
C        0.292   0.7008    0.773     C
O        0.293   0.6835   0.9872     O
F       0.2938   0.3287    0.401     F
F       0.2962   0.7151   0.4187     F
C       0.2966   0.2613   0.0879     C
C        0.298   0.3179   0.9232     C
F       0.2999   0.2357   0.3186     F
C       0.3026   0.1806   0.5381     C
F       0.3051   0.8867   0.6392     F
Ag     0.30853  0.00414  0.08527    Ag
C       0.3089   0.2832   0.1468     C
F        0.309   0.7997   0.5656     F
F        0.314   0.3907   0.9456     F
C       0.3148   0.7599   0.8144     C
C       0.3265   0.5855   0.1167     C
F       0.3286   0.2157    0.174     F
F       0.3313   0.0424   0.5102     F
C       0.3385   0.0939   0.5511     C
N       0.3387   0.8146   0.8438     N
O       0.3388   0.0629   0.8355     O
O       0.3396   0.5339   0.3648     O
Ag     0.34514  0.37125  0.53408    Ag
C       0.3507   0.6228   0.7841     C
C       0.3509   0.9379   0.9995     C
O       0.3611    0.184   0.9412     O
O       0.3669   0.2383   0.5502     O
Ag     0.37173  0.55222  0.49429    Ag
Ag     0.37432  0.80563  0.01086    Ag
F        0.379   0.6466   0.2779     F
F       0.3809   0.8982   0.1854     F
F       0.3828   0.4303   0.6562     F
F       0.3829    0.351    0.306     F
F        0.384   0.3575    0.855     F
Ag     0.38596  0.89801  0.91058    Ag
C       0.3896   0.2818   0.3328     C
C       0.3935   0.2554   0.9328     C
C       0.3945   0.5299   0.0854     C
F       0.3959   0.3334   0.1555     F
C       0.3969   0.2999   0.3922     C
C       0.4026   0.2165   0.0726     C
O        0.403   0.1412   0.0747     O
F       0.4047   0.2272   0.4151     F
F       0.4111   0.9527   0.2819     F
F       0.4181   0.0416   0.2194     F
F       0.4257   0.0003   0.7353     F
O       0.4334   0.6245   0.6154     O
C       0.4351   0.5612   0.3756     C
C       0.4425   0.0498   0.8404     C
F       0.4473   0.3518   0.7419     F
N       0.4484   0.4899   0.0607     N
F       0.4528    0.124   0.6204     F
Ag     0.45598  0.07343  0.97753    Ag
C       0.4598   0.0816   0.5761     C
Ag     0.46678  0.61123  0.97584    Ag
F       0.4691   0.1488   0.7712     F
F       0.4718   0.0019   0.5822     F
C        0.472   0.9805   0.2436     C
O       0.4778   0.5759   0.4231     O
F       0.4819   0.2412   0.3201     F
F       0.4831   0.8933   0.4644     F
O       0.4837   0.3753    0.461     O
O       0.4839   0.2559   0.0587     O
F       0.4846   0.5168   0.2869     F
C       0.4857   0.6504   0.2987     C
C       0.4878   0.9144   0.2022     C
F       0.4879   0.2997    0.661     F
C       0.4926   0.3547   0.4143     C
C       0.4932   0.4307   0.6726     C
O       0.4959   0.2791   0.9416     O
O       0.4988   0.0202   0.8793     O
O       0.5012   0.9798   0.1207     O
O       0.5041   0.7209   0.0584     O
C       0.5068   0.5693   0.3274     C
C       0.5074   0.6453   0.5857     C
F       0.5121   0.7003    0.339     F
C       0.5122   0.0856   0.7978     C
C       0.5143   0.3496   0.7013     C
F       0.5154   0.4832   0.7131     F
O       0.5161   0.7441   0.9413     O
O       0.5163   0.6247    0.539     O
F       0.5169   0.1067   0.5356     F
F       0.5181   0.7588   0.6799     F
O       0.5222   0.4241   0.5769     O
C        0.528   0.0195   0.7564     C
F       0.5282   0.9981   0.4178     F
F       0.5309   0.8512   0.2288     F
Ag     0.53322  0.38877  0.02416    Ag
C       0.5402   0.9184   0.4239     C
Ag     0.54402  0.92657  0.02247    Ag
F       0.5472    0.876   0.3796     F
N       0.5516   0.5101   0.9393     N
F       0.5527   0.6482   0.2581     F
C       0.5575   0.9502   0.1596     C
C       0.5649   0.4388   0.6244     C
O       0.5666   0.3755   0.3846     O
F       0.5743   0.9997   0.2647     F
F       0.5819   0.9584   0.7806     F
F       0.5889   0.0473   0.7181     F
F       0.5953   0.7728   0.5849     F
O        0.597   0.8588   0.9253     O
C       0.5974   0.7835   0.9274     C
C       0.6031   0.7001   0.6078     C
F       0.6041   0.6666   0.8445     F
C       0.6055   0.4701   0.9146     C
C       0.6065   0.7446   0.0672     C
C       0.6104   0.7182   0.6672     C
Ag     0.61404  0.10199  0.08942    Ag
F        0.616   0.6425    0.145     F
F       0.6171    0.649    0.694     F
F       0.6172   0.5697   0.3438     F
F       0.6191   0.1018   0.8146     F
F        0.621   0.3534   0.7221     F
Ag     0.62568  0.19437  0.98914    Ag
Ag     0.62827  0.44778  0.50571    Ag
O       0.6331   0.7617   0.4498     O
O       0.6389    0.816   0.0588     O
C       0.6491   0.0621   0.0005     C
C       0.6493   0.3772   0.2159     C
Ag     0.65486  0.62875  0.46592    Ag
O       0.6604   0.4661   0.6352     O
O       0.6612   0.9371   0.1645     O
N       0.6613   0.1854   0.1562     N
C       0.6615   0.9061   0.4489     C
F       0.6687   0.9576   0.4898     F
F       0.6714   0.7843    0.826     F
C       0.6735   0.4145   0.8833     C
C       0.6852   0.2401   0.1856     C
F        0.686   0.6093   0.0544     F
F        0.691   0.2003   0.4344     F
C       0.6911   0.7168   0.8532     C
Ag     0.69147  0.99586  0.91473    Ag
F       0.6949   0.1133   0.3608     F
C       0.6974   0.8194   0.4619     C
F       0.7001   0.7643   0.6814     F
C        0.702   0.6821   0.0768     C
C       0.7034   0.7387   0.9121     C
F       0.7038   0.2849   0.5813     F
F       0.7062   0.6713    0.599     F
O        0.707   0.3165   0.0128     O
C        0.708   0.2992    0.227     C
F       0.7135    0.182   0.6604     F
C       0.7206   0.6674   0.1365     C
F       0.7206   0.6703   0.9395     F
C       0.7234   0.0172   0.0157     C
F       0.7284   0.9357   0.4126     F
Ag     0.73146  0.44415  0.40849    Ag
C        0.732    0.463   0.8441     C
F       0.7347   0.7428   0.1545     F
F       0.7653   0.2428   0.3455     F
C        0.768    0.963   0.6559     C
Ag     0.76854  0.94415  0.09151    Ag
F       0.7716   0.4357   0.0874     F
C       0.7766   0.5172   0.4843     C
C       0.7794   0.1674   0.3635     C
F       0.7794   0.1703   0.5605     F
F       0.7865    0.682   0.8396     F
C        0.792   0.7992    0.273     C
O        0.793   0.8165   0.4872     O
F       0.7938   0.1713    0.901     F
F       0.7962   0.7849   0.9187     F
C       0.7966   0.2387   0.5879     C
C        0.798   0.1821   0.4232     C
F       0.7999   0.2643   0.8186     F
C       0.8026   0.3194   0.0381     C
F       0.8051   0.6133   0.1392     F
Ag     0.80853  0.49586  0.58527    Ag
C       0.8089   0.2168   0.6468     C
F        0.809   0.7003   0.0656     F
F        0.814   0.1093   0.4456     F
C       0.8148   0.7401   0.3144     C
C       0.8265   0.9145   0.6167     C
F       0.8286   0.2843    0.674     F
F       0.8313   0.4576   0.0102     F
C       0.8385   0.4061   0.0511     C
N       0.8387   0.6854   0.3438     N
O       0.8388   0.4371   0.3355     O
O       0.8396   0.9661   0.8648     O
Ag     0.84514  0.12875  0.03408    Ag
C       0.8507   0.8772   0.2841     C
C       0.8509   0.5621   0.4995     C
O       0.8611    0.316   0.4412     O
O       0.8669   0.2617   0.0502     O
Ag     0.87173  0.94778  0.99429    Ag
Ag     0.87432  0.69437  0.51086    Ag
F        0.879   0.8534   0.7779     F
F       0.8809   0.6018   0.6854     F
F       0.8828   0.0697   0.1562     F
F       0.8829    0.149    0.806     F
F        0.884   0.1425    0.355     F
Ag     0.88596  0.60199  0.41058    Ag
C       0.8896   0.2182   0.8328     C
C       0.8935   0.2446   0.4328     C
C       0.8945   0.9701   0.5854     C
F       0.8959   0.1666   0.6555     F
C       0.8969   0.2001   0.8922     C
C       0.9026   0.2835   0.5726     C
O        0.903   0.3588   0.5747     O
F       0.9047   0.2728   0.9151     F
F       0.9111   0.5473   0.7819     F
F       0.9181   0.4584   0.7194     F
F       0.9257   0.4997   0.2353     F
O       0.9334   0.8755   0.1154     O
C       0.9351   0.9388   0.8756     C
C       0.9425   0.4502   0.3404     C
F       0.9473   0.1482   0.2419     F
N       0.9484   0.0101   0.5607     N
F       0.9528    0.376   0.1204     F
Ag     0.95598  0.42657  0.47753    Ag
C       0.9598   0.4184   0.0761     C
Ag     0.96678  0.88877  0.47584    Ag
F       0.9691   0.3512   0.2712     F
F       0.9718   0.4981   0.0822     F
C        0.972   0.5195   0.7436     C
O       0.9778   0.9241   0.9231     O
F       0.9819   0.2588   0.8201     F
F       0.9831   0.6067   0.9644     F
O       0.9837   0.1247    0.961     O
O       0.9839   0.2441   0.5587     O
F       0.9846   0.9832   0.7869     F
C       0.9857   0.8496   0.7987     C
C       0.9878   0.5856   0.7022     C
F       0.9879   0.2003    0.161     F
C       0.9926   0.1453   0.9143     C
C       0.9932   0.0693   0.1726     C
O       0.9959   0.2209   0.4416     O
O       0.9988   0.4798   0.3793     O
