data_I
_chemical_name_common  '/home/zhangsd/repos/MofS-CGCNN/ML/data/WS24/clean_cifs/TIKXAN'
_cell_length_a 17.64371
_cell_length_b 17.64371
_cell_length_c 17.64371
_cell_angle_alpha 109.47122
_cell_angle_beta  109.47122
_cell_angle_gamma 109.47122
_space_group_name_H-M_alt      'P 1'


loop_
_space_group_symop_operation_xyz
  'x, y, z' 

loop_
_atom_site_label
_atom_site_fract_x
_atom_site_fract_y
_atom_site_fract_z
_atom_site_type_symbol
O       0.0046   0.6555   0.7233     O
H       0.0193    0.956   0.8425     H
C       0.0247   0.3308   0.8851     C
C       0.0261   0.1252   0.5929     C
C       0.0261   0.5721   0.4324     C
O       0.0312    0.278   0.9168     O
C       0.0323   0.9071   0.9332     C
H        0.044   0.5633   0.3865     H
C        0.046   0.9739   0.9063     C
C       0.0543   0.1692   0.6939     C
H       0.0633   0.8865    0.044     H
C       0.0668   0.0991   0.4739     C
C       0.0676   0.6397   0.5937     C
O       0.0678   0.3491   0.8445     O
C       0.0721   0.9324   0.0261     C
O       0.0832   0.1144   0.8612     O
C       0.0929   0.6252   0.5261     C
C       0.0937   0.1397   0.5676     C
C       0.0991   0.0668   0.9739     C
H       0.1135   0.6768   0.6575     H
O       0.1144   0.0832   0.3612     O
C       0.1149   0.1396   0.9457     C
In       0.125     0.25    0.875    In
C       0.1252   0.0261   0.0929     C
O       0.1388    0.222   0.7532     O
C       0.1396   0.1149   0.4457     C
C       0.1397   0.0937   0.0676     C
O       0.1509   0.9954   0.2187     O
O       0.1555   0.2233   0.0046     O
H       0.1575   0.1768   0.6135     H
C       0.1692   0.0543   0.1939     C
H       0.1768   0.1575   0.1135     H
C       0.1939   0.6692   0.5543     C
O       0.2187   0.6509   0.4954     O
O        0.222   0.1388   0.2532     O
O       0.2233   0.1555   0.5046     O
O       0.2468   0.3856   0.9688     O
In        0.25    0.125    0.375    In
O       0.2532    0.722   0.6388     O
O       0.2767   0.2813   0.4322     O
O        0.278   0.0312   0.4168     O
O       0.2813   0.2767   0.9322     O
C       0.3061   0.3604   0.9753     C
H       0.3232   0.9367   0.4807     H
C       0.3308   0.0247   0.3851     C
H       0.3425    0.456   0.5193     H
O       0.3445   0.8491   0.5678     O
O       0.3491   0.0678   0.3445     O
C       0.3603   0.9279    0.454     C
C       0.3604   0.3061   0.4753     C
O       0.3612   0.6144   0.5832     O
C       0.3748   0.9677   0.4009     C
In       0.375     0.75    0.625    In
C       0.3851   0.8308   0.5247     C
O       0.3856   0.2468   0.4688     O
H       0.3865    0.544   0.0633     H
C       0.4009   0.8748   0.4677     C
C       0.4063   0.4739    0.546     C
C       0.4071   0.4332   0.0323     C
O       0.4168    0.778   0.5312     O
C       0.4279    0.954   0.3603     C
O       0.4322   0.7767   0.7813     O
C       0.4324   0.5261   0.0721     C
C       0.4332   0.4071   0.5323     C
H       0.4367   0.9807   0.3232     H
C       0.4457   0.6396   0.6149     C
C        0.454   0.8603   0.4279     C
H        0.456   0.3425   0.0193     H
C       0.4677   0.9009   0.3748     C
O       0.4688   0.8856   0.7468     O
C       0.4739   0.4063    0.046     C
C       0.4739   0.5668   0.5991     C
C       0.4753   0.8604   0.8061     C
H       0.4807   0.8232   0.4367     H
O       0.4954   0.7187   0.1509     O
O       0.5046   0.7233   0.6555     O
H       0.5193   0.8425    0.956     H
C       0.5247   0.8851   0.3308     C
C       0.5261   0.4324   0.5721     C
C       0.5261   0.5929   0.1252     C
O       0.5312   0.9168    0.278     O
C       0.5323   0.9332   0.9071     C
H        0.544   0.3865   0.5633     H
C        0.546   0.9063   0.9739     C
C       0.5543   0.6939   0.1692     C
H       0.5633    0.044   0.8865     H
C       0.5668   0.4739   0.0991     C
C       0.5676   0.5937   0.6397     C
O       0.5678   0.8445   0.3491     O
C       0.5721   0.0261   0.9324     C
O       0.5832   0.8612   0.1144     O
C       0.5929   0.5261   0.6252     C
C       0.5937   0.5676   0.1397     C
C       0.5991   0.9739   0.0668     C
H       0.6135   0.6575   0.6768     H
O       0.6144   0.3612   0.0832     O
C       0.6149   0.9457   0.1396     C
In       0.625    0.875     0.25    In
C       0.6252   0.0929   0.0261     C
O       0.6388   0.7532    0.222     O
C       0.6396   0.4457   0.1149     C
C       0.6397   0.0676   0.0937     C
O       0.6509   0.2187   0.9954     O
O       0.6555   0.0046   0.2233     O
H       0.6575   0.6135   0.1768     H
C       0.6692   0.1939   0.0543     C
H       0.6768   0.1135   0.1575     H
C       0.6939   0.5543   0.6692     C
O       0.7187   0.4954   0.6509     O
O        0.722   0.2532   0.1388     O
O       0.7233   0.5046   0.1555     O
O       0.7468   0.9688   0.3856     O
In        0.75    0.375    0.125    In
O       0.7532   0.6388    0.722     O
O       0.7767   0.4322   0.2813     O
O        0.778   0.4168   0.0312     O
O       0.7813   0.9322   0.2767     O
C       0.8061   0.9753   0.3604     C
H       0.8232   0.4807   0.9367     H
C       0.8308   0.3851   0.0247     C
H       0.8425   0.5193    0.456     H
O       0.8445   0.5678   0.8491     O
O       0.8491   0.3445   0.0678     O
C       0.8603    0.454   0.9279     C
C       0.8604   0.4753   0.3061     C
O       0.8612   0.5832   0.6144     O
C       0.8748   0.4009   0.9677     C
In       0.875    0.625     0.75    In
C       0.8851   0.5247   0.8308     C
O       0.8856   0.4688   0.2468     O
H       0.8865   0.0633    0.544     H
C       0.9009   0.4677   0.8748     C
C       0.9063    0.546   0.4739     C
C       0.9071   0.0323   0.4332     C
O       0.9168   0.5312    0.778     O
C       0.9279   0.3603    0.954     C
O       0.9322   0.7813   0.7767     O
C       0.9324   0.0721   0.5261     C
C       0.9332   0.5323   0.4071     C
H       0.9367   0.3232   0.9807     H
C       0.9457   0.6149   0.6396     C
C        0.954   0.4279   0.8603     C
H        0.956   0.0193   0.3425     H
C       0.9677   0.3748   0.9009     C
O       0.9688   0.7468   0.8856     O
C       0.9739    0.046   0.4063     C
C       0.9739   0.5991   0.5668     C
C       0.9753   0.8061   0.8604     C
H       0.9807   0.4367   0.8232     H
O       0.9954   0.1509   0.7187     O
