data_I
_chemical_name_common  '/home/zhangsd/repos/MofS-CGCNN/ML/data/WS24/clean_cifs/TILBOH'
_cell_length_a 18.09730
_cell_length_b 27.35545
_cell_length_c 28.45800
_cell_angle_alpha 115.41069
_cell_angle_beta  94.77000
_cell_angle_gamma 107.42080
_space_group_name_H-M_alt      'P 1'


loop_
_space_group_symop_operation_xyz
  'x, y, z' 

loop_
_atom_site_label
_atom_site_fract_x
_atom_site_fract_y
_atom_site_fract_z
_atom_site_type_symbol
C       0.0133   0.6037   0.2708     C
O       0.0146   0.6792   0.6232     O
Cl     0.01661  0.70452  0.74268    Cl
Sb     0.01675     0.26  0.47142    Sb
S      0.02076  0.30544   0.6864     S
C       0.0219   0.6534   0.2682     C
Sb     0.02312  0.57975  0.02129    Sb
O       0.0249   0.3408   0.4872     O
C       0.0276   0.4015   0.6903     C
Sb     0.02815  0.76167  0.66404    Sb
O       0.0308   0.2385   0.3982     O
Sb     0.03242   0.7128  0.13497    Sb
H       0.0326   0.5752   0.2488     H
Sb     0.03333  0.70309  0.00279    Sb
Cl     0.03671  0.46741  0.56862    Cl
H        0.038   0.4335   0.6832     H
Sb     0.03847  0.63605  0.55309    Sb
Cl      0.0498   0.1428   0.2918    Cl
C       0.0503   0.3562   0.6644     C
O       0.0514   0.7164   0.2317     O
O       0.0532   0.6389   0.0981     O
O       0.0585   0.6342    0.992     O
O       0.0588   0.4616   0.2723     O
O       0.0597   0.4249   0.4513     O
C       0.0612   0.6743    0.233     C
O       0.0658   0.0915   0.3716     O
O       0.0675   0.7387   0.0815     O
O       0.0697   0.1487   0.3176     O
Cl     0.07796  0.51888   0.9125    Cl
O       0.0829   0.2685   0.3294     O
C       0.0907   0.3451   0.6199     C
Cl     0.09082  0.84622  0.19402    Cl
Cl      0.0957   0.1723   0.4438    Cl
Cl      0.0985    0.652   0.8914    Cl
Pr     0.09922  0.38783  0.36174    Pr
Cl     0.09941  0.83948  0.04668    Cl
O          0.1   0.6472   0.2062     O
O       0.1016   0.2991    0.597     O
C       0.1129   0.1293   0.4163     C
O       0.1131   0.3861   0.6074     O
Sb     0.11898  0.51109  0.49369    Sb
C       0.1285   0.4642   0.2866     C
Sb     0.13022  0.25464  0.26516    Sb
S      0.13329  0.03299  0.41654     S
O       0.1352   0.3006   0.4959     O
O       0.1381   0.5899   0.0355     O
H       0.1449   0.5505   0.7915     H
O        0.148   0.4414   0.3118     O
H        0.148   0.5076   0.6965     H
O       0.1484   0.7462    0.168     O
O       0.1491   0.7347   0.0057     O
H       0.1541   0.0599   0.2969     H
C       0.1542   0.1067   0.4478     C
H       0.1562   0.5643   0.7886     H
H       0.1585   0.9689    0.228     H
H       0.1598   0.5323   0.6937     H
Pr      0.1602  0.41157   0.5436    Pr
O       0.1629   0.4937   0.4293     O
Pr     0.16751  0.24355  0.38955    Pr
O       0.1716   0.3404   0.2999     O
S      0.17277  0.54127  0.24318     S
O       0.1743    0.941    0.425     O
Pr     0.18578  0.65112  0.14492    Pr
Pr     0.19002  0.64217  0.97138    Pr
C       0.1922   0.5528   0.7789     C
C       0.1943   0.5081   0.2789     C
C       0.1948   0.5286   0.7251     C
C       0.1949   0.0416   0.4711     C
Sb     0.19672  0.53492  0.01688    Sb
Pr     0.19719  0.81851  0.12105    Pr
Cl     0.19811  0.37068  0.43807    Cl
C       0.2004   0.0572   0.2842     C
O       0.2013    0.497   0.5303     O
C       0.2029   0.0049   0.2451     C
C       0.2042   0.9867   0.4695     C
C       0.2054   0.1344   0.4966     C
Sb     0.20784  0.80206  0.24432    Sb
O       0.2143   0.2492   0.3098     O
Sb     0.21679  0.78588  0.98032    Sb
Sb     0.22289   0.2944  0.53736    Sb
H       0.2238   0.1752   0.5198     H
C       0.2279   0.0956   0.5091     C
O       0.2322    0.991    0.513     O
O       0.2346   0.1763   0.3651     O
O       0.2358   0.5984    0.894     O
O        0.239    0.494   0.6268     O
O       0.2436   0.6205   0.2038     O
O       0.2471   0.9201   0.1614     O
Cl     0.24933  0.71816  0.08758    Cl
O       0.2563   0.4421   0.3823     O
O       0.2565   0.5866   0.0925     O
O       0.2594   0.5833   0.9881     O
O       0.2633   0.7459   0.2291     O
H       0.2634   0.1075   0.5419     H
O       0.2662   0.2782   0.4727     O
O        0.268   0.3817    0.567     O
C       0.2684   0.5803    0.811     C
C       0.2691   0.1027   0.3017     C
C       0.2704   0.5377   0.7167     C
O        0.271   0.8487   0.2135     O
C       0.2721   0.5802   0.2544     C
O       0.2733   0.7303   0.9646     O
O        0.274   0.8369   0.0563     O
C       0.2751   0.5267   0.2982     C
Sb     0.27531  0.52692   0.4259    Sb
C       0.2765   0.0117   0.2344     C
Sb     0.27911  0.39835  0.31185    Sb
C       0.2864   0.1651   0.3394     C
C       0.2888   0.5948   0.8725     C
C       0.2928   0.5067   0.6656     C
H       0.2981   0.5128   0.3187     H
C       0.2994   0.6226   0.2321     C
C       0.3024   0.9659   0.1971     C
O       0.3166   0.3085   0.4032     O
Sb     0.31902  0.54352  0.55907    Sb
C       0.3203    0.568   0.2848     C
O       0.3315   0.5203   0.4845     O
O       0.3329    0.369   0.3508     O
Sb      0.3338  0.28946  0.33062    Sb
O       0.3374   0.4706   0.5432     O
S       0.3409   0.5555    0.778     S
S      0.34182  0.08192  0.27322     S
O       0.3435   0.6943   0.1651     O
O       0.3501   0.2025   0.3427     O
O       0.3513   0.6857   0.0067     O
O       0.3513   0.8477   0.1429     O
O       0.3514   0.5968   0.8966     O
O       0.3589   0.5051   0.6675     O
O       0.3616   0.6437   0.8946     O
O       0.3713   0.6574   0.2499     O
Sb     0.37199  0.62466   0.1278    Sb
Pr     0.37287  0.43384  0.44865    Pr
O       0.3748   0.9756   0.2035     O
Sb     0.37615  0.30556  0.46347    Sb
Sb     0.37679  0.61693  0.99795    Sb
H       0.3769   0.5854   0.2952     H
Sb      0.3789  0.75854  0.24076    Sb
Sb     0.38113  0.43377  0.58011    Sb
Sb     0.38789  0.88273  0.22198    Sb
Sb     0.38858  0.74343  0.98069    Sb
Sb     0.39078  0.87536  0.09264    Sb
O       0.3919   0.3881   0.5049     O
O       0.3968   0.6556   0.0773     O
O       0.4028   0.8083    0.205     O
O       0.4089   0.8015   0.0574     O
Pr     0.42272  0.75923  0.11631    Pr
Cl     0.42837   0.5018   0.3887    Cl
Cl     0.46547  0.26298  0.94724    Cl
Cl     0.46999  0.11303  0.83183    Cl
Cl      0.4739  0.25441  0.81012    Cl
Cl     0.49226   0.3722  0.41224    Cl
O          0.5      0.5      0.5     O
Cl     0.50774   0.6278  0.58776    Cl
Cl      0.5261  0.74559  0.18988    Cl
Cl     0.53001  0.88697  0.16817    Cl
Cl     0.53453  0.73702  0.05276    Cl
Cl     0.57163   0.4982   0.6113    Cl
Pr     0.57728  0.24077   0.8837    Pr
O       0.5911   0.1985   0.9426     O
O       0.5972   0.1917    0.795     O
O       0.6032   0.3444   0.9227     O
O       0.6081   0.6119   0.4951     O
Sb     0.60922  0.12464  0.90736    Sb
Sb     0.61142  0.25657  0.01931    Sb
Sb     0.61211  0.11727  0.77802    Sb
Sb     0.61887  0.56623  0.41989    Sb
Sb      0.6211  0.24146  0.75924    Sb
H       0.6231   0.4146   0.7048     H
Sb     0.62321  0.38307  0.00205    Sb
Sb     0.62385  0.69444  0.53653    Sb
O       0.6252   0.0244   0.7965     O
Pr     0.62713  0.56616  0.55135    Pr
Sb     0.62801  0.37534   0.8722    Sb
O       0.6287   0.3426   0.7501     O
O       0.6335   0.4768   0.3328     O
O       0.6384   0.3563   0.1054     O
O       0.6486   0.4032   0.1034     O
O       0.6487   0.1523   0.8571     O
O       0.6487   0.3143   0.9933     O
O       0.6499   0.7975   0.6573     O
O       0.6565   0.3057   0.8349     O
S      0.65818  0.91808  0.72678     S
S        0.659   0.4224    0.223     S
O       0.6626   0.5294   0.4568     O
Sb      0.6662  0.71054  0.66938    Sb
O       0.6671    0.631   0.6492     O
O       0.6685   0.4797   0.5155     O
C       0.6797    0.432   0.7152     C
Sb     0.68098  0.45648  0.44093    Sb
O       0.6834   0.6915   0.5968     O
C       0.6976   0.0341   0.8029     C
C       0.7006   0.3774   0.7679     C
C       0.7015   0.4812    0.335     C
H       0.7019   0.4872   0.6813     H
C       0.7095   0.3898   0.1277     C
C       0.7136   0.8349   0.6606     C
Sb     0.72089  0.60165  0.68815    Sb
C       0.7235   0.9883   0.7656     C
C        0.724   0.4619   0.2794     C
Sb     0.72469  0.47308   0.5741    Sb
C       0.7249   0.4733   0.7018     C
O        0.726   0.1631   0.9437     O
O       0.7267   0.2697   0.0354     O
C       0.7279   0.4198   0.7456     C
O        0.729   0.1513   0.7865     O
C       0.7309   0.8973   0.6983     C
C       0.7314   0.4312    0.189     C
O        0.732   0.6183    0.433     O
O       0.7338   0.7218   0.5273     O
H       0.7366   0.8925   0.4581     H
O       0.7367   0.2541   0.7709     O
O       0.7406   0.4167   0.0119     O
O       0.7435   0.4134   0.9075     O
O       0.7437   0.5579   0.6177     O
Cl     0.75067  0.28184  0.91242    Cl
O       0.7529   0.0799   0.8386     O
O       0.7533   0.5001   0.3772     O
O       0.7564   0.3795   0.7962     O
O       0.7621   0.3865   0.1075     O
O       0.7654   0.8237   0.6349     O
O       0.7678    0.009    0.487     O
C       0.7721   0.9044   0.4909     C
H       0.7762   0.8248   0.4802     H
Sb     0.77711   0.7056  0.46264    Sb
Sb     0.78321  0.21412  0.01968    Sb
O       0.7857   0.7508   0.6902     O
Sb     0.79216  0.19794  0.75568    Sb
C       0.7946   0.8656   0.5034     C
C       0.7958   0.0133   0.5305     C
C       0.7971   0.9951   0.7549     C
C       0.7984   0.4412    0.224     C
O       0.7987    0.503   0.4697     O
C       0.7989   0.4593   0.2779     C
C       0.7996   0.9428   0.7158     C
Cl     0.80189  0.62932  0.56193    Cl
Pr     0.80281  0.18149  0.87895    Pr
Sb     0.80328  0.46508  0.98312    Sb
C       0.8051   0.9584   0.5289     C
C       0.8057   0.4919   0.7211     C
Pr     0.80998  0.35783  0.02862    Pr
Pr     0.81422  0.34888  0.85508    Pr
O       0.8257    0.059    0.575     O
S      0.82723  0.45873  0.75682     S
O       0.8284   0.6596   0.7001     O
Pr     0.83249  0.75645  0.61045    Pr
O       0.8371   0.5063   0.5707     O
Pr      0.8398  0.58843   0.4564    Pr
H       0.8402   0.4677   0.3063     H
H       0.8415   0.0311    0.772     H
H       0.8438   0.4357   0.2114     H
C       0.8458   0.8933   0.5522     C
H       0.8459   0.9401   0.7031     H
O       0.8509   0.2653   0.9943     O
O       0.8516   0.2538    0.832     O
H        0.852   0.4924   0.3035     H
O        0.852   0.5586   0.6882     O
H       0.8551   0.4495   0.2085     H
O       0.8619   0.4101   0.9645     O
O       0.8648   0.6994   0.5041     O
S      0.86671  0.96701  0.58346     S
Sb     0.86978  0.74536  0.73484    Sb
O       0.8714   0.8166   0.5625     O
C       0.8715   0.5358   0.7134     C
Sb     0.88102  0.48891  0.50631    Sb
O       0.8869   0.6139   0.3926     O
C       0.8871   0.8707   0.5837     C
O       0.8984   0.7009    0.403     O
O          0.9   0.3528   0.7938     O
Cl     0.90059  0.16052  0.95332    Cl
Pr     0.90078  0.61217  0.63826    Pr
Cl      0.9015    0.348   0.1086    Cl
Cl     0.90918  0.15378  0.80598    Cl
C       0.9093   0.6549   0.3801     C
O       0.9171   0.7315   0.6706     O
Cl     0.92204  0.48112   0.0875    Cl
O       0.9303   0.8513   0.6824     O
O       0.9325   0.2613   0.9185     O
O       0.9342   0.9085   0.6284     O
C       0.9388   0.3257    0.767     C
O       0.9403   0.5751   0.5487     O
O       0.9412   0.5384   0.7277     O
O       0.9415   0.3658    0.008     O
O       0.9468   0.3611   0.9019     O
O       0.9486   0.2836   0.7683     O
C       0.9497   0.6438   0.3356     C
Cl      0.9502   0.8572   0.7082    Cl
Sb     0.96153  0.36395  0.44691    Sb
H        0.962   0.5665   0.3168     H
Cl     0.96329  0.53259  0.43138    Cl
Sb     0.96667  0.29691  0.99721    Sb
H       0.9674   0.4248   0.7512     H
Sb     0.96758   0.2872  0.86503    Sb
O       0.9692   0.7615   0.6018     O
Sb     0.97185  0.23833  0.33596    Sb
C       0.9724   0.5985   0.3097     C
O       0.9751   0.6592   0.5128     O
Sb     0.97688  0.42025  0.97871    Sb
C       0.9781   0.3466   0.7318     C
S      0.97924  0.69456   0.3136     S
Sb     0.98325     0.74  0.52858    Sb
Cl     0.98339  0.29548  0.25732    Cl
O       0.9854   0.3208   0.3768     O
C       0.9867   0.3963   0.7292     C
