data_I
_chemical_name_common  '/home/zhangsd/repos/MofS-CGCNN/ML/data/WS24/clean_cifs/TIRLIQ'
_cell_length_a 11.80500
_cell_length_b 17.14200
_cell_length_c 21.54400
_cell_angle_alpha 90.00000
_cell_angle_beta  90.00000
_cell_angle_gamma 106.44100
_space_group_name_H-M_alt      'P 1'


loop_
_space_group_symop_operation_xyz
  'x, y, z' 

loop_
_atom_site_label
_atom_site_fract_x
_atom_site_fract_y
_atom_site_fract_z
_atom_site_type_symbol
H       0.0037   0.0755   0.8447     H
N       0.0037   0.4051     0.61     N
C       0.0067   0.4243   0.7184     C
C        0.016   0.9804   0.1618     C
C       0.0162   0.0135   0.4159     C
O       0.0165   0.2909   0.4067     O
O       0.0177   0.2733   0.0796     O
C       0.0186   0.6488   0.0057     C
N       0.0317    0.893   0.8511     N
C       0.0345   0.9378    0.422     C
H       0.0366   0.4155   0.7569     H
C       0.0397   0.2113   0.5558     C
O       0.0421   0.6224   0.5329     O
C       0.0427   0.3958   0.6667     C
C       0.0435   0.6622   0.5829     C
C       0.0502   0.5895   0.1013     C
C       0.0515   0.4743   0.9082     C
O       0.0537   0.7764   0.4287     O
C       0.0553   0.7131   0.9566     C
C       0.0581   0.9704   0.8607     C
C       0.0596   0.1293   0.5652     C
Zn     0.06487  0.36568  0.53252    Zn
C       0.0688   0.1421   0.1757     C
H       0.0741   0.5155   0.8788     H
C       0.0751   0.5334   0.2864     C
C       0.0764   0.5528   0.3933     C
H       0.0831   0.7249   0.6956     H
C        0.084   0.4138   0.0039     C
C       0.0857   0.6501   0.0574     C
H       0.0909   0.1984   0.1798     H
H       0.0943   0.5913   0.1373     H
C       0.0963   0.9787   0.5792     C
O       0.0965   0.1551   0.4171     O
H        0.099   0.3676   0.6705     H
H       0.1026   0.5137   0.2509     H
H       0.1064   0.5457   0.4322     H
H       0.1083   0.9277   0.5841     H
H         0.11    0.932   0.4174     H
C       0.1164   0.5199   0.3433     C
C       0.1178   0.0882   0.4076     C
C       0.1191   0.0226   0.1937     C
C       0.1194    0.477   0.9612     C
O       0.1251   0.2684   0.5303     O
H       0.1266   0.9957   0.8826     H
C        0.127   0.6517   0.6331     C
H       0.1294   0.4136   0.0391     H
C       0.1315   0.6912    0.689     C
Zn     0.14024  0.82852   0.8796    Zn
C       0.1457   0.0997   0.1987     C
O       0.1519   0.7726   0.8018     O
H       0.1552   0.6917    0.063     H
O       0.1625   0.7563   0.9544     O
H       0.1677   0.9943   0.2111     H
H       0.1689   0.3754    0.255     H
H       0.1697   0.4895   0.3478     H
H       0.1715   0.4391   0.1608     H
C       0.1738   0.1199   0.5606     C
Zn     0.17676  0.27275  0.42794    Zn
C       0.1904   0.0443   0.5671     C
H       0.1935   0.5721   0.5848     H
C       0.1986   0.6003   0.6221     C
C       0.2072   0.6816   0.7356     C
O        0.211   0.4564   0.5194     O
C       0.2135    0.724   0.7962     C
H       0.2162   0.1279   0.2177     H
O       0.2171    0.079   0.3926     O
C       0.2201   0.3683   0.2241     C
C       0.2225   0.4075   0.1679     C
C       0.2228   0.5473   0.9739     C
O       0.2242   0.2936   0.3368     O
H       0.2343   0.9621   0.0633     H
H        0.238   0.1649   0.5531     H
O       0.2387   0.6067   0.9388     O
O       0.2613   0.3933   0.4388     O
H        0.262   0.8351   0.0531     H
H       0.2657   0.0379   0.5633     H
O       0.2758   0.7064   0.8368     O
C       0.2772   0.4527   0.4739     C
C       0.2775   0.5925   0.6679     C
C       0.2799   0.6317   0.7241     C
O       0.2829    0.921   0.8926     O
H       0.2838   0.8721   0.7177     H
C       0.2865    0.276   0.2962     C
O        0.289   0.5436   0.0194     O
C       0.2928   0.3184   0.2356     C
C       0.3014   0.3997   0.1221     C
H       0.3065   0.4279   0.0848     H
C       0.3096   0.9557   0.0671     C
Zn     0.32324  0.72725  0.92794    Zn
C       0.3262   0.8801   0.0606     C
H       0.3285   0.5609   0.6608     H
H       0.3303   0.5105   0.8478     H
H       0.3311   0.6246    0.755     H
H       0.3323   0.0057   0.7111     H
O       0.3375   0.2437   0.4544     O
H       0.3448   0.3083    0.563     H
O       0.3481   0.2274   0.3018     O
C       0.3543   0.9003   0.6987     C
Zn     0.35976  0.17148   0.3796    Zn
C       0.3685   0.3088    0.189     C
H       0.3706   0.5864   0.5391     H
C        0.373   0.3483   0.1331     C
H       0.3734   0.0043   0.3826     H
O       0.3749   0.7316   0.0303     O
C       0.3806    0.523   0.4612     C
C       0.3809   0.9774   0.6937     C
C       0.3822   0.9118   0.9076     C
C       0.3836   0.4801   0.8433     C
H         0.39    0.068   0.9174     H
H       0.3917   0.0723   0.0841     H
H       0.3936   0.4543   0.9322     H
H       0.3974   0.4863   0.7509     H
H        0.401   0.6324   0.1705     H
O       0.4035   0.8449   0.9171     O
C       0.4037   0.0213   0.0792     C
H       0.4057   0.4087   0.6373     H
H       0.4091   0.8016   0.6798     H
C       0.4143   0.3499   0.5574     C
C        0.416   0.5862   0.5039     C
H       0.4169   0.2751   0.1956     H
C       0.4236   0.4472   0.8933     C
C       0.4249   0.4666   0.7864     C
H       0.4259   0.4845   0.3788     H
C       0.4312   0.8579   0.6757     C
Zn     0.43513  0.63432  0.03252    Zn
C       0.4404   0.8707   0.0652     C
C       0.4419   0.0296   0.3607     C
C       0.4447   0.2869   0.4566     C
O       0.4463   0.2236   0.9287     O
C       0.4485   0.5257   0.4082     C
C       0.4498   0.4105   0.6013     C
C       0.4565   0.3378   0.0829     C
C       0.4573   0.6042   0.1667     C
O       0.4579   0.3776   0.0329     O
C       0.4603   0.7887   0.0558     C
H       0.4634   0.5845   0.2569     H
C       0.4655   0.0622    0.922     C
N       0.4683    0.107   0.3511     N
C       0.4814   0.3512   0.5057     C
O       0.4823   0.7267   0.5796     O
O       0.4835   0.7091   0.9067     O
C       0.4838   0.9865   0.9159     C
C        0.484   0.0196   0.6618     C
C       0.4933   0.5757   0.2184     C
N       0.4963   0.5949     0.11     N
H       0.4963   0.9245   0.3447     H
H       0.5037   0.0755   0.6553     H
N       0.5037   0.4051     0.89     N
C       0.5067   0.4243   0.7816     C
C        0.516   0.9804   0.3382     C
C       0.5162   0.0135   0.0841     C
O       0.5165   0.2909   0.0933     O
O       0.5177   0.2733   0.4204     O
C       0.5186   0.6488   0.4943     C
N       0.5317    0.893   0.6489     N
C       0.5345   0.9378    0.078     C
H       0.5366   0.4155   0.7431     H
C       0.5397   0.2113   0.9442     C
O       0.5421   0.6224   0.9671     O
C       0.5427   0.3958   0.8333     C
C       0.5435   0.6622   0.9171     C
C       0.5502   0.5895   0.3987     C
C       0.5515   0.4743   0.5918     C
O       0.5537   0.7764   0.0713     O
C       0.5553   0.7131   0.5434     C
C       0.5581   0.9704   0.6393     C
C       0.5596   0.1293   0.9348     C
Zn     0.56487  0.36568  0.96748    Zn
C       0.5688   0.1421   0.3243     C
H       0.5741   0.5155   0.6212     H
C       0.5751   0.5334   0.2136     C
C       0.5764   0.5528   0.1067     C
H       0.5831   0.7249   0.8044     H
C        0.584   0.4138   0.4961     C
C       0.5857   0.6501   0.4426     C
H       0.5909   0.1984   0.3202     H
H       0.5943   0.5913   0.3627     H
C       0.5963   0.9787   0.9208     C
O       0.5965   0.1551   0.0829     O
H        0.599   0.3676   0.8295     H
H       0.6026   0.5137   0.2491     H
H       0.6064   0.5457   0.0678     H
H       0.6083   0.9277   0.9159     H
H         0.61    0.932   0.0826     H
C       0.6164   0.5199   0.1567     C
C       0.6178   0.0882   0.0924     C
C       0.6191   0.0226   0.3063     C
C       0.6194    0.477   0.5388     C
O       0.6251   0.2684   0.9697     O
H       0.6266   0.9957   0.6174     H
C        0.627   0.6517   0.8669     C
H       0.6294   0.4136   0.4609     H
C       0.6315   0.6912    0.811     C
Zn     0.64024  0.82852   0.6204    Zn
C       0.6457   0.0997   0.3013     C
O       0.6519   0.7726   0.6982     O
H       0.6552   0.6917    0.437     H
O       0.6625   0.7563   0.5456     O
H       0.6677   0.9943   0.2889     H
H       0.6689   0.3754    0.245     H
H       0.6697   0.4895   0.1522     H
H       0.6715   0.4391   0.3392     H
C       0.6738   0.1199   0.9394     C
Zn     0.67676  0.27275  0.07206    Zn
C       0.6904   0.0443   0.9329     C
H       0.6935   0.5721   0.9152     H
C       0.6986   0.6003   0.8779     C
C       0.7072   0.6816   0.7644     C
O        0.711   0.4564   0.9806     O
C       0.7135    0.724   0.7038     C
H       0.7162   0.1279   0.2823     H
O       0.7171    0.079   0.1074     O
C       0.7201   0.3683   0.2759     C
C       0.7225   0.4075   0.3321     C
C       0.7228   0.5473   0.5261     C
O       0.7242   0.2936   0.1632     O
H       0.7343   0.9621   0.4367     H
H        0.738   0.1649   0.9469     H
O       0.7387   0.6067   0.5612     O
O       0.7613   0.3933   0.0612     O
H        0.762   0.8351   0.4469     H
H       0.7657   0.0379   0.9367     H
O       0.7758   0.7064   0.6632     O
C       0.7772   0.4527   0.0261     C
C       0.7775   0.5925   0.8321     C
C       0.7799   0.6317   0.7759     C
O       0.7829    0.921   0.6074     O
H       0.7838   0.8721   0.7823     H
C       0.7865    0.276   0.2038     C
O        0.789   0.5436   0.4806     O
C       0.7928   0.3184   0.2644     C
C       0.8014   0.3997   0.3779     C
H       0.8065   0.4279   0.4152     H
C       0.8096   0.9557   0.4329     C
Zn     0.82324  0.72725  0.57206    Zn
C       0.8262   0.8801   0.4394     C
H       0.8285   0.5609   0.8392     H
H       0.8303   0.5105   0.6522     H
H       0.8311   0.6246    0.745     H
H       0.8323   0.0057   0.7889     H
O       0.8375   0.2437   0.0456     O
H       0.8448   0.3083    0.937     H
O       0.8481   0.2274   0.1982     O
C       0.8543   0.9003   0.8013     C
Zn     0.85976  0.17148   0.1204    Zn
C       0.8685   0.3088    0.311     C
H       0.8706   0.5864   0.9609     H
C        0.873   0.3483   0.3669     C
H       0.8734   0.0043   0.1174     H
O       0.8749   0.7316   0.4697     O
C       0.8806    0.523   0.0388     C
C       0.8809   0.9774   0.8063     C
C       0.8822   0.9118   0.5924     C
C       0.8836   0.4801   0.6567     C
H         0.89    0.068   0.5826     H
H       0.8917   0.0723   0.4159     H
H       0.8936   0.4543   0.5678     H
H       0.8974   0.4863   0.7491     H
H        0.901   0.6324   0.3295     H
O       0.9035   0.8449   0.5829     O
C       0.9037   0.0213   0.4208     C
H       0.9057   0.4087   0.8627     H
H       0.9091   0.8016   0.8202     H
C       0.9143   0.3499   0.9426     C
C        0.916   0.5862   0.9961     C
H       0.9169   0.2751   0.3044     H
C       0.9236   0.4472   0.6067     C
C       0.9249   0.4666   0.7136     C
H       0.9259   0.4845   0.1212     H
C       0.9312   0.8579   0.8243     C
Zn     0.93513  0.63432  0.46748    Zn
C       0.9404   0.8707   0.4348     C
C       0.9419   0.0296   0.1393     C
C       0.9447   0.2869   0.0434     C
O       0.9463   0.2236   0.5713     O
C       0.9485   0.5257   0.0918     C
C       0.9498   0.4105   0.8987     C
C       0.9565   0.3378   0.4171     C
C       0.9573   0.6042   0.3333     C
O       0.9579   0.3776   0.4671     O
C       0.9603   0.7887   0.4442     C
H       0.9634   0.5845   0.2431     H
C       0.9655   0.0622    0.578     C
N       0.9683    0.107   0.1489     N
C       0.9814   0.3512   0.9943     C
O       0.9823   0.7267   0.9204     O
O       0.9835   0.7091   0.5933     O
C       0.9838   0.9865   0.5841     C
C        0.984   0.0196   0.8382     C
C       0.9933   0.5757   0.2816     C
N       0.9963   0.5949     0.39     N
H       0.9963   0.9245   0.1553     H
