data_I
_chemical_name_common  '/home/zhangsd/repos/MofS-CGCNN/ML/data/WS24/clean_cifs/TISJUC'
_cell_length_a 10.67300
_cell_length_b 14.65700
_cell_length_c 18.40500
_cell_angle_alpha 90.00000
_cell_angle_beta  104.33700
_cell_angle_gamma 90.00000
_space_group_name_H-M_alt      'P 1'


loop_
_space_group_symop_operation_xyz
  'x, y, z' 

loop_
_atom_site_label
_atom_site_fract_x
_atom_site_fract_y
_atom_site_fract_z
_atom_site_type_symbol
C       0.0076  0.11841  0.95458     C
C       0.0076  0.38159  0.45458     C
H       0.0252   0.5414   0.3254     H
H       0.0252   0.9586   0.8254     H
H       0.0266   0.0564    0.959     H
H       0.0266   0.4436    0.459     H
C       0.0481   0.6973  0.06089     C
C       0.0481   0.8027  0.56089     C
C       0.0506    0.229  0.49843     C
C       0.0506    0.271  0.99843     C
H       0.0518   0.1083   0.7977     H
H       0.0518   0.3917   0.2977     H
H       0.0664   0.6353   0.0662     H
H       0.0664   0.8647   0.5662     H
C       0.0735   0.5264  0.29145     C
C       0.0735   0.9736  0.79145     C
C       0.0798    0.179  0.00641     C
C       0.0798    0.321  0.50641     C
H       0.0884   0.5447   0.9359     H
H       0.0884   0.9553   0.4359     H
C       0.0886   0.0626  0.77468     C
C       0.0886   0.4374  0.27468     C
C       0.0917  0.64864  0.60328     C
C       0.0917  0.85136  0.10328     C
H       0.0974   0.1877   0.5331     H
H       0.0974   0.3123   0.0331     H
C       0.1185  0.74098  0.61171     C
C       0.1185  0.75902  0.11171     C
H       0.1205   0.6567   0.2699     H
H       0.1205   0.8433   0.7699     H
C       0.1304    0.596  0.25779     C
C       0.1304    0.904  0.75779     C
H       0.1408    0.607   0.6367     H
H       0.1408    0.893   0.1367     H
H       0.1443   0.5358   0.8235     H
H       0.1443   0.9642   0.3235     H
C       0.1576   0.0848  0.72414     C
C       0.1576   0.4152  0.22414     C
C       0.1634  0.51409  0.93296     C
C       0.1634  0.98591  0.43296     C
H       0.1669   0.1459   0.7127     H
H       0.1669   0.3541   0.2127     H
C       0.1904  0.14525  0.06722     C
C       0.1904  0.35475  0.56722     C
C       0.1968  0.50824  0.86575     C
C       0.1968  0.99176  0.36575     C
O      0.19871  0.01738  0.56023     O
O      0.19871  0.48262  0.06023     O
C       0.2015   0.5735  0.20635     C
C       0.2015   0.9265  0.70635     C
C       0.2143   0.0181  0.68934     C
C       0.2143   0.4819  0.18934     C
O       0.2173  0.73583  0.17215     O
O       0.2173  0.76417  0.67215     O
O      0.22858  0.06408  0.06353     O
O      0.22858  0.43592  0.56353     O
H       0.2391   0.7233   0.4799     H
H       0.2391   0.7767   0.9799     H
C       0.2418  0.02577  0.49646     C
C       0.2418  0.47423  0.99646     C
O      0.24629  0.19658  0.12053     O
O      0.24629  0.30342  0.62053     O
O       0.2692  0.00696  0.22913     O
O       0.2692  0.49304  0.72913     O
H       0.2701   0.5682   0.4698     H
H       0.2701   0.9318   0.9698     H
C       0.2717  0.64659  0.17358     C
C       0.2717  0.85341  0.67358     C
H        0.272   0.6293   0.1227     H
H        0.272   0.8707   0.6227     H
C       0.2819  0.04596  0.63106     C
C       0.2819  0.45404  0.13106     C
H       0.2924   0.0752   0.9438     H
H       0.2924   0.4248   0.4438     H
H       0.2946   0.1115   0.6318     H
H       0.2946   0.3885   0.1318     H
C       0.2981   0.7017  0.45432     C
C       0.2981   0.7983  0.95432     C
C       0.3072  0.03783  0.35941     C
C       0.3072  0.46217  0.85941     C
C       0.3163   0.6096  0.44828     C
C       0.3163   0.8904  0.94828     C
H       0.3238   0.2238   0.9089     H
H       0.3238   0.2762   0.4089     H
C       0.3366  0.04778  0.28511     C
C       0.3366  0.45222  0.78511     C
C       0.3524  0.08806  0.91613     C
C       0.3524  0.41194  0.41613     C
C       0.3539  0.07048  0.49197     C
C       0.3539  0.42952  0.99197     C
H       0.3543   0.6759   0.9248     H
H       0.3543   0.8241   0.4248     H
H        0.361   0.6488   0.2026     H
H        0.361   0.8512   0.7026     H
H       0.3656   0.0164   0.6396     H
H       0.3656   0.4836   0.1396     H
C       0.3673   0.7385  0.92241     C
C       0.3673   0.7615  0.42241     C
C       0.3712   0.1763  0.89537     C
C       0.3712   0.3237  0.39537     C
Co     0.37598  0.07653 0.160461    Co
Co     0.37598  0.42347 0.660461    Co
C       0.3849  0.07643  0.42374     C
C       0.3849  0.42357  0.92374     C
C       0.4044  0.57916   0.4097     C
C       0.4044  0.92084   0.9097     C
H       0.4067   0.6343   0.6887     H
H       0.4067   0.8657   0.1887     H
H       0.4078   0.0962   0.5346     H
H       0.4078   0.4038   0.0346     H
C       0.4244   0.0189   0.8951     C
C       0.4244   0.4811   0.3951     C
O      0.42857  0.09855  0.27744     O
O      0.42857  0.40145  0.77744     O
C       0.4566   0.7273  0.38656     C
C       0.4566   0.7727  0.88656     C
H       0.4598   0.1071   0.4208     H
H       0.4598   0.3929   0.9208     H
C         0.46   0.1936  0.85481     C
C         0.46   0.3064  0.35481     C
C       0.4689  0.62207  0.66246     C
C       0.4689  0.87793  0.16246     C
H       0.4721   0.2474   0.3392     H
H       0.4721   0.2526   0.8392     H
N       0.4763  0.63777  0.38008     N
N       0.4763  0.86223  0.88008     N
N       0.4855  0.53575  0.64311     N
N       0.4855  0.96425  0.14311     N
H       0.4949   0.2319   0.6339     H
H       0.4949   0.2681   0.1339     H
H       0.5051   0.7319   0.8661     H
H       0.5051   0.7681   0.3661     H
N       0.5145  0.03575  0.85689     N
N       0.5145  0.46425  0.35689     N
N       0.5237  0.13777  0.11992     N
N       0.5237  0.36223  0.61992     N
H       0.5279   0.7474   0.1608     H
H       0.5279   0.7526   0.6608     H
C       0.5311  0.12207  0.83754     C
C       0.5311  0.37793  0.33754     C
C         0.54   0.6936  0.64519     C
C         0.54   0.8064  0.14519     C
H       0.5402   0.6071   0.0792     H
H       0.5402   0.8929   0.5792     H
C       0.5434   0.2273  0.11344     C
C       0.5434   0.2727  0.61344     C
O      0.57143  0.59855  0.22256     O
O      0.57143  0.90145  0.72256     O
C       0.5756   0.5189   0.6049     C
C       0.5756   0.9811   0.1049     C
H       0.5922   0.5962   0.9654     H
H       0.5922   0.9038   0.4654     H
H       0.5933   0.1343   0.8113     H
H       0.5933   0.3657   0.3113     H
C       0.5956  0.07916   0.0903     C
C       0.5956  0.42084   0.5903     C
C       0.6151  0.57643  0.07626     C
C       0.6151  0.92357  0.57626     C
Co     0.62402  0.57653 0.339539    Co
Co     0.62402  0.92347 0.839539    Co
C       0.6288   0.6763  0.60463     C
C       0.6288   0.8237  0.10463     C
C       0.6327   0.2385  0.57759     C
C       0.6327   0.2615  0.07759     C
H       0.6344   0.5164   0.8604     H
H       0.6344   0.9836   0.3604     H
H        0.639   0.1488   0.2974     H
H        0.639   0.3512   0.7974     H
H       0.6457   0.1759   0.5752     H
H       0.6457   0.3241   0.0752     H
C       0.6461  0.57048  0.00803     C
C       0.6461  0.92952  0.50803     C
C       0.6476  0.58806  0.58387     C
C       0.6476  0.91194  0.08387     C
C       0.6634  0.54778  0.21489     C
C       0.6634  0.95222  0.71489     C
H       0.6762   0.7238   0.5911     H
H       0.6762   0.7762   0.0911     H
C       0.6837   0.1096  0.05172     C
C       0.6837   0.3904  0.55172     C
C       0.6928  0.53783  0.14059     C
C       0.6928  0.96217  0.64059     C
C       0.7019   0.2017  0.04568     C
C       0.7019   0.2983  0.54568     C
H       0.7054   0.6115   0.8682     H
H       0.7054   0.8885   0.3682     H
H       0.7076   0.5752   0.5562     H
H       0.7076   0.9248   0.0562     H
C       0.7181  0.54596  0.86894     C
C       0.7181  0.95404  0.36894     C
H        0.728   0.1293   0.3773     H
H        0.728   0.3707   0.8773     H
C       0.7283  0.14659  0.32642     C
C       0.7283  0.35341  0.82642     C
H       0.7299   0.0682   0.0302     H
H       0.7299   0.4318   0.5302     H
O       0.7308  0.50696  0.27087     O
O       0.7308  0.99304  0.77087     O
O      0.75371  0.69658  0.37947     O
O      0.75371  0.80342  0.87947     O
C       0.7582  0.52577  0.00354     C
C       0.7582  0.97423  0.50354     C
H       0.7609   0.2233   0.0201     H
H       0.7609   0.2767   0.5201     H
O      0.77142  0.56408  0.43647     O
O      0.77142  0.93592  0.93647     O
O       0.7827  0.23583  0.32785     O
O       0.7827  0.26417  0.82785     O
C       0.7857   0.5181  0.81066     C
C       0.7857   0.9819  0.31066     C
C       0.7985   0.0735  0.29365     C
C       0.7985   0.4265  0.79365     C
O      0.80129  0.51738  0.93977     O
O      0.80129  0.98262  0.43977     O
C       0.8032  0.00824  0.63425     C
C       0.8032  0.49176  0.13425     C
C       0.8096  0.64525  0.43278     C
C       0.8096  0.85475  0.93278     C
H       0.8331   0.6459   0.7873     H
H       0.8331   0.8541   0.2873     H
C       0.8366  0.01409  0.56704     C
C       0.8366  0.48591  0.06704     C
C       0.8424   0.5848  0.77586     C
C       0.8424   0.9152  0.27586     C
H       0.8557   0.0358   0.6765     H
H       0.8557   0.4642   0.1765     H
H       0.8592    0.107   0.8633     H
H       0.8592    0.393   0.3633     H
C       0.8696    0.096  0.24221     C
C       0.8696    0.404  0.74221     C
H       0.8795   0.1567   0.2301     H
H       0.8795   0.3433   0.7301     H
C       0.8815  0.24098  0.88829     C
C       0.8815  0.25902  0.38829     C
H       0.9026   0.6877   0.9669     H
H       0.9026   0.8123   0.4669     H
C       0.9083  0.14864  0.89672     C
C       0.9083  0.35136  0.39672     C
C       0.9114   0.5626  0.72532     C
C       0.9114   0.9374  0.22532     C
H       0.9116   0.0447   0.5641     H
H       0.9116   0.4553   0.0641     H
C       0.9202    0.679  0.49359     C
C       0.9202    0.821  0.99359     C
C       0.9265   0.0264  0.20855     C
C       0.9265   0.4736  0.70855     C
H       0.9336   0.1353   0.4338     H
H       0.9336   0.3647   0.9338     H
H       0.9482   0.6083   0.7023     H
H       0.9482   0.8917   0.2023     H
C       0.9494    0.729  0.00157     C
C       0.9494    0.771  0.50157     C
C       0.9519   0.1973  0.43911     C
C       0.9519   0.3027  0.93911     C
H       0.9734   0.5564    0.541     H
H       0.9734   0.9436    0.041     H
H       0.9748   0.0414   0.1746     H
H       0.9748   0.4586   0.6746     H
C       0.9924  0.61841  0.54542     C
C       0.9924  0.88159  0.04542     C
