data_I
_chemical_name_common  '/home/zhangsd/repos/MofS-CGCNN/ML/data/WS24/clean_cifs/TIZYEI'
_cell_length_a 16.54760
_cell_length_b 16.54760
_cell_length_c  7.81670
_cell_angle_alpha 90.00000
_cell_angle_beta  90.00000
_cell_angle_gamma 120.00000
_space_group_name_H-M_alt      'P 1'


loop_
_space_group_symop_operation_xyz
  'x, y, z' 

loop_
_atom_site_label
_atom_site_fract_x
_atom_site_fract_y
_atom_site_fract_z
_atom_site_type_symbol
C          0.0   0.2883   0.6453     C
C          0.0   0.3398   0.8096     C
C          0.0   0.4332   0.1082     C
H          0.0   0.4669   0.2035     H
H          0.0   0.5331   0.7035     H
C          0.0   0.5668   0.6082     C
C          0.0   0.6602   0.3096     C
C          0.0   0.7117   0.1453     C
H       0.0137   0.3388   0.3997     H
H       0.0137   0.6749   0.8997     H
H       0.0297   0.1899   0.7343     H
H       0.0297   0.8398   0.2343     H
C       0.0508   0.3588    0.502     C
C       0.0508    0.692    0.002     C
H       0.0607   0.4189   0.5354     H
H       0.0607   0.6418   0.0354     H
C        0.062   0.2463    0.668     C
C        0.062   0.8157    0.168     C
H       0.0779   0.2323   0.5585     H
H       0.0779   0.8456   0.0585     H
C       0.0832   0.4041   0.8879     C
C       0.0832   0.6791   0.3879     C
C       0.0839   0.4519   0.0423     C
C       0.0839    0.632   0.5423     C
H        0.089   0.2869   0.4669     H
H        0.089   0.8021   0.9669     H
C       0.0947    0.323    0.567     C
C       0.0947   0.7717    0.067     C
H       0.1099    0.363   0.4805     H
H       0.1099   0.7469   0.9805     H
H        0.118   0.2899   0.7273     H
H        0.118   0.8281   0.2273     H
H       0.1206   0.3875   0.5347     H
H       0.1206   0.7331   0.0347     H
H       0.1351   0.3176    0.648     H
H       0.1351   0.8175    0.148     H
H       0.1395   0.4164   0.8394     H
H       0.1395   0.7231   0.3394     H
H       0.1544   0.2323   0.0585     H
H       0.1544   0.9221   0.5585     H
H       0.1602   0.1899   0.2343     H
H       0.1602   0.9703   0.7343     H
O       0.1695    0.554   0.2624     O
O       0.1695   0.6155   0.7624     O
C       0.1713   0.5225   0.1147     C
C       0.1713   0.6488   0.6147     C
H       0.1719   0.2899   0.2273     H
H       0.1719    0.882   0.7273     H
H       0.1825   0.3176    0.148     H
H       0.1825   0.8649    0.648     H
C       0.1843   0.2463    0.168     C
C       0.1843    0.938    0.668     C
H       0.1899   0.0297   0.7343     H
H       0.1899   0.1602   0.2343     H
H       0.1979   0.2869   0.9669     H
H       0.1979    0.911   0.4669     H
C       0.2283    0.323    0.067     C
C       0.2283   0.9053    0.567     C
H       0.2323   0.0779   0.5585     H
H       0.2323   0.1544   0.0585     H
C       0.2463    0.062    0.668     C
C       0.2463   0.1843    0.168     C
O       0.2507   0.5535   0.0469     O
O       0.2507   0.6972   0.5469     O
H       0.2531    0.363   0.9805     H
H       0.2531   0.8901   0.4805     H
H       0.2669   0.3875   0.0347     H
H       0.2669   0.8794   0.5347     H
H       0.2769   0.4164   0.3394     H
H       0.2769   0.8605   0.8394     H
H       0.2869    0.089   0.4669     H
H       0.2869   0.1979   0.9669     H
C       0.2883      0.0   0.6453     C
C       0.2883   0.2883   0.1453     C
H       0.2899    0.118   0.7273     H
H       0.2899   0.1719   0.2273     H
O       0.3028   0.5535   0.5469     O
O       0.3028   0.7493   0.0469     O
C        0.308   0.3588    0.002     C
C        0.308   0.9492    0.502     C
H       0.3176   0.1351    0.648     H
H       0.3176   0.1825    0.148     H
C       0.3209   0.4041   0.3879     C
C       0.3209   0.9168   0.8879     C
C        0.323   0.0947    0.567     C
C        0.323   0.2283    0.067     C
H       0.3251   0.3388   0.8997     H
H       0.3251   0.9863   0.3997     H
Pr     0.33333  0.66667   0.3079    Pr
Pr     0.33333  0.66667   0.8079    Pr
H       0.3388   0.0137   0.3997     H
H       0.3388   0.3251   0.8997     H
C       0.3398      0.0   0.8096     C
C       0.3398   0.3398   0.3096     C
C       0.3512   0.5225   0.6147     C
C       0.3512   0.8287   0.1147     C
H       0.3582   0.4189   0.0354     H
H       0.3582   0.9393   0.5354     H
C       0.3588   0.0508    0.502     C
C       0.3588    0.308    0.002     C
H        0.363   0.1099   0.4805     H
H        0.363   0.2531   0.9805     H
C        0.368   0.4519   0.5423     C
C        0.368   0.9161   0.0423     C
O       0.3845    0.554   0.7624     O
O       0.3845   0.8305   0.2624     O
H       0.3875   0.1206   0.5347     H
H       0.3875   0.2669   0.0347     H
C       0.4041   0.0832   0.8879     C
C       0.4041   0.3209   0.3879     C
H       0.4164   0.1395   0.8394     H
H       0.4164   0.2769   0.3394     H
H       0.4189   0.0607   0.5354     H
H       0.4189   0.3582   0.0354     H
C       0.4332      0.0   0.1082     C
C       0.4332   0.4332   0.6082     C
O        0.446   0.6155   0.2624     O
O        0.446   0.8305   0.7624     O
O       0.4465   0.6972   0.0469     O
O       0.4465   0.7493   0.5469     O
C       0.4519   0.0839   0.0423     C
C       0.4519    0.368   0.5423     C
H       0.4669      0.0   0.2035     H
H       0.4669   0.4669   0.7035     H
C       0.4775   0.6488   0.1147     C
C       0.4775   0.8287   0.6147     C
C       0.5225   0.1713   0.1147     C
C       0.5225   0.3512   0.6147     C
H       0.5331      0.0   0.7035     H
H       0.5331   0.5331   0.2035     H
C       0.5481    0.632   0.0423     C
C       0.5481   0.9161   0.5423     C
O       0.5535   0.2507   0.0469     O
O       0.5535   0.3028   0.5469     O
O        0.554   0.1695   0.2624     O
O        0.554   0.3845   0.7624     O
C       0.5668      0.0   0.6082     C
C       0.5668   0.5668   0.1082     C
H       0.5811   0.6418   0.5354     H
H       0.5811   0.9393   0.0354     H
H       0.5836   0.7231   0.8394     H
H       0.5836   0.8605   0.3394     H
C       0.5959   0.6791   0.8879     C
C       0.5959   0.9168   0.3879     C
H       0.6125   0.7331   0.5347     H
H       0.6125   0.8794   0.0347     H
O       0.6155   0.1695   0.7624     O
O       0.6155    0.446   0.2624     O
C        0.632   0.0839   0.5423     C
C        0.632   0.5481   0.0423     C
H        0.637   0.7469   0.4805     H
H        0.637   0.8901   0.9805     H
C       0.6412    0.692    0.502     C
C       0.6412   0.9492    0.002     C
H       0.6418   0.0607   0.0354     H
H       0.6418   0.5811   0.5354     H
C       0.6488   0.1713   0.6147     C
C       0.6488   0.4775   0.1147     C
C       0.6602      0.0   0.3096     C
C       0.6602   0.6602   0.8096     C
H       0.6612   0.6749   0.3997     H
H       0.6612   0.9863   0.8997     H
Pr     0.66667  0.33333   0.3079    Pr
Pr     0.66667  0.33333   0.8079    Pr
H       0.6749   0.0137   0.8997     H
H       0.6749   0.6612   0.3997     H
C        0.677   0.7717    0.567     C
C        0.677   0.9053    0.067     C
C       0.6791   0.0832   0.3879     C
C       0.6791   0.5959   0.8879     C
H       0.6824   0.8175    0.648     H
H       0.6824   0.8649    0.148     H
C        0.692   0.0508    0.002     C
C        0.692   0.6412    0.502     C
O       0.6972   0.2507   0.5469     O
O       0.6972   0.4465   0.0469     O
H       0.7101   0.8281   0.7273     H
H       0.7101    0.882   0.2273     H
C       0.7117      0.0   0.1453     C
C       0.7117   0.7117   0.6453     C
H       0.7131   0.8021   0.4669     H
H       0.7131    0.911   0.9669     H
H       0.7231   0.1395   0.3394     H
H       0.7231   0.5836   0.8394     H
H       0.7331   0.1206   0.0347     H
H       0.7331   0.6125   0.5347     H
H       0.7469   0.1099   0.9805     H
H       0.7469    0.637   0.4805     H
O       0.7493   0.3028   0.0469     O
O       0.7493   0.4465   0.5469     O
C       0.7537   0.8157    0.668     C
C       0.7537    0.938    0.168     C
H       0.7677   0.8456   0.5585     H
H       0.7677   0.9221   0.0585     H
C       0.7717   0.0947    0.067     C
C       0.7717    0.677    0.567     C
H       0.8021    0.089   0.9669     H
H       0.8021   0.7131   0.4669     H
H       0.8101   0.8398   0.7343     H
H       0.8101   0.9703   0.2343     H
C       0.8157    0.062    0.168     C
C       0.8157   0.7537    0.668     C
H       0.8175   0.1351    0.148     H
H       0.8175   0.6824    0.648     H
H       0.8281    0.118   0.2273     H
H       0.8281   0.7101   0.7273     H
C       0.8287   0.3512   0.1147     C
C       0.8287   0.4775   0.6147     C
O       0.8305   0.3845   0.2624     O
O       0.8305    0.446   0.7624     O
H       0.8398   0.0297   0.2343     H
H       0.8398   0.8101   0.7343     H
H       0.8456   0.0779   0.0585     H
H       0.8456   0.7677   0.5585     H
H       0.8605   0.2769   0.8394     H
H       0.8605   0.5836   0.3394     H
H       0.8649   0.1825    0.648     H
H       0.8649   0.6824    0.148     H
H       0.8794   0.2669   0.5347     H
H       0.8794   0.6125   0.0347     H
H        0.882   0.1719   0.7273     H
H        0.882   0.7101   0.2273     H
H       0.8901   0.2531   0.4805     H
H       0.8901    0.637   0.9805     H
C       0.9053   0.2283    0.567     C
C       0.9053    0.677    0.067     C
H        0.911   0.1979   0.4669     H
H        0.911   0.7131   0.9669     H
C       0.9161    0.368   0.0423     C
C       0.9161   0.5481   0.5423     C
C       0.9168   0.3209   0.8879     C
C       0.9168   0.5959   0.3879     C
H       0.9221   0.1544   0.5585     H
H       0.9221   0.7677   0.0585     H
C        0.938   0.1843    0.668     C
C        0.938   0.7537    0.168     C
H       0.9393   0.3582   0.5354     H
H       0.9393   0.5811   0.0354     H
C       0.9492    0.308    0.502     C
C       0.9492   0.6412    0.002     C
H       0.9703   0.1602   0.7343     H
H       0.9703   0.8101   0.2343     H
H       0.9863   0.3251   0.3997     H
H       0.9863   0.6612   0.8997     H
