data_I
_chemical_name_common  '/home/zhangsd/repos/MofS-CGCNN/ML/data/WS24/clean_cifs/TIZYIM'
_cell_length_a 16.41960
_cell_length_b 16.41960
_cell_length_c  7.66960
_cell_angle_alpha 90.00000
_cell_angle_beta  90.00000
_cell_angle_gamma 120.00000
_space_group_name_H-M_alt      'P 1'


loop_
_space_group_symop_operation_xyz
  'x, y, z' 

loop_
_atom_site_label
_atom_site_fract_x
_atom_site_fract_y
_atom_site_fract_z
_atom_site_type_symbol
C          0.0   0.2881     0.63     C
C          0.0   0.3373    0.797     C
C          0.0   0.4335    0.101     C
H          0.0   0.4717   0.1904     H
H          0.0   0.5283   0.6904     H
C          0.0   0.5665    0.601     C
C          0.0   0.6627    0.297     C
C          0.0   0.7119     0.13     C
H       0.0143   0.1803    0.739     H
H       0.0143    0.834    0.239     H
H       0.0176   0.3598   0.3971     H
H       0.0176   0.6578   0.8971     H
C        0.052    0.233    0.664     C
C        0.052    0.819    0.164     C
C        0.057    0.366    0.494     C
C        0.057    0.691    0.994     C
H       0.0627   0.2103   0.5557     H
H       0.0627   0.8524   0.0557     H
H       0.0809   0.4264   0.5468     H
H       0.0809   0.6545   0.0468     H
C       0.0831   0.4039   0.8873     C
C       0.0831   0.6792   0.3873     C
C        0.084   0.4514    0.044     C
C        0.084   0.6326    0.544     C
H       0.0944    0.285   0.4564     H
H       0.0944   0.8094   0.9564     H
C        0.099    0.321    0.558     C
C        0.099    0.778    0.058     C
H       0.1093   0.3595   0.4529     H
H       0.1093   0.7498   0.9529     H
H       0.1113   0.2733   0.7195     H
H       0.1113    0.838   0.2195     H
H       0.1284   0.3863   0.5287     H
H       0.1284   0.7421   0.0287     H
H       0.1353   0.3117   0.6457     H
H       0.1353   0.8236   0.1457     H
H       0.1408   0.4173   0.8405     H
H       0.1408   0.7235   0.3405     H
H       0.1476   0.2103   0.0557     H
H       0.1476   0.9373   0.5557     H
H        0.162   0.2733   0.2195     H
H        0.162   0.8887   0.7195     H
H        0.166   0.1803    0.239     H
H        0.166   0.9857    0.739     H
O        0.172   0.5571   0.2621     O
O        0.172   0.6149   0.7621     O
C       0.1733   0.5227   0.1095     C
C       0.1733   0.6506   0.6095     C
H       0.1764   0.3117   0.1457     H
H       0.1764   0.8647   0.6457     H
H       0.1803   0.0143    0.739     H
H       0.1803    0.166    0.239     H
C        0.181    0.233    0.164     C
C        0.181    0.948    0.664     C
H       0.1906    0.285   0.9564     H
H       0.1906   0.9056   0.4564     H
H       0.2103   0.0627   0.5557     H
H       0.2103   0.1476   0.0557     H
C        0.222    0.321    0.058     C
C        0.222    0.901    0.558     C
C        0.233    0.052    0.664     C
C        0.233    0.181    0.164     C
H       0.2502   0.3595   0.9529     H
H       0.2502   0.8907   0.4529     H
O       0.2531   0.5538     0.06     O
O       0.2531   0.6993     0.56     O
H       0.2579   0.3863   0.0287     H
H       0.2579   0.8716   0.5287     H
H       0.2733   0.1113   0.7195     H
H       0.2733    0.162   0.2195     H
H       0.2765   0.4173   0.3405     H
H       0.2765   0.8592   0.8405     H
H        0.285   0.0944   0.4564     H
H        0.285   0.1906   0.9564     H
C       0.2881      0.0     0.63     C
C       0.2881   0.2881     0.13     C
O       0.3007   0.5538     0.56     O
O       0.3007   0.7469     0.06     O
C        0.309    0.366    0.994     C
C        0.309    0.943    0.494     C
H       0.3117   0.1353   0.6457     H
H       0.3117   0.1764   0.1457     H
C       0.3208   0.4039   0.3873     C
C       0.3208   0.9169   0.8873     C
C        0.321    0.099    0.558     C
C        0.321    0.222    0.058     C
Eu     0.33333  0.66667   0.3108    Eu
Eu     0.33333  0.66667   0.8108    Eu
C       0.3373      0.0    0.797     C
C       0.3373   0.3373    0.297     C
H       0.3422   0.3598   0.8971     H
H       0.3422   0.9824   0.3971     H
H       0.3455   0.4264   0.0468     H
H       0.3455   0.9191   0.5468     H
C       0.3494   0.5227   0.6095     C
C       0.3494   0.8267   0.1095     C
H       0.3595   0.1093   0.4529     H
H       0.3595   0.2502   0.9529     H
H       0.3598   0.0176   0.3971     H
H       0.3598   0.3422   0.8971     H
C        0.366    0.057    0.494     C
C        0.366    0.309    0.994     C
C       0.3674   0.4514    0.544     C
C       0.3674    0.916    0.044     C
O       0.3851   0.5571   0.7621     O
O       0.3851    0.828   0.2621     O
H       0.3863   0.1284   0.5287     H
H       0.3863   0.2579   0.0287     H
C       0.4039   0.0831   0.8873     C
C       0.4039   0.3208   0.3873     C
H       0.4173   0.1408   0.8405     H
H       0.4173   0.2765   0.3405     H
H       0.4264   0.0809   0.5468     H
H       0.4264   0.3455   0.0468     H
C       0.4335      0.0    0.101     C
C       0.4335   0.4335    0.601     C
O       0.4429   0.6149   0.2621     O
O       0.4429    0.828   0.7621     O
O       0.4462   0.6993     0.06     O
O       0.4462   0.7469     0.56     O
C       0.4514    0.084    0.044     C
C       0.4514   0.3674    0.544     C
H       0.4717      0.0   0.1904     H
H       0.4717   0.4717   0.6904     H
C       0.4773   0.6506   0.1095     C
C       0.4773   0.8267   0.6095     C
C       0.5227   0.1733   0.1095     C
C       0.5227   0.3494   0.6095     C
H       0.5283      0.0   0.6904     H
H       0.5283   0.5283   0.1904     H
C       0.5486   0.6326    0.044     C
C       0.5486    0.916    0.544     C
O       0.5538   0.2531     0.06     O
O       0.5538   0.3007     0.56     O
O       0.5571    0.172   0.2621     O
O       0.5571   0.3851   0.7621     O
C       0.5665      0.0    0.601     C
C       0.5665   0.5665    0.101     C
H       0.5736   0.6545   0.5468     H
H       0.5736   0.9191   0.0468     H
H       0.5827   0.7235   0.8405     H
H       0.5827   0.8592   0.3405     H
C       0.5961   0.6792   0.8873     C
C       0.5961   0.9169   0.3873     C
H       0.6137   0.7421   0.5287     H
H       0.6137   0.8716   0.0287     H
O       0.6149    0.172   0.7621     O
O       0.6149   0.4429   0.2621     O
C       0.6326    0.084    0.544     C
C       0.6326   0.5486    0.044     C
C        0.634    0.691    0.494     C
C        0.634    0.943    0.994     C
H       0.6402   0.6578   0.3971     H
H       0.6402   0.9824   0.8971     H
H       0.6405   0.7498   0.4529     H
H       0.6405   0.8907   0.9529     H
C       0.6506   0.1733   0.6095     C
C       0.6506   0.4773   0.1095     C
H       0.6545   0.0809   0.0468     H
H       0.6545   0.5736   0.5468     H
H       0.6578   0.0176   0.8971     H
H       0.6578   0.6402   0.3971     H
C       0.6627      0.0    0.297     C
C       0.6627   0.6627    0.797     C
Eu     0.66667  0.33333   0.3108    Eu
Eu     0.66667  0.33333   0.8108    Eu
C        0.679    0.778    0.558     C
C        0.679    0.901    0.058     C
C       0.6792   0.0831   0.3873     C
C       0.6792   0.5961   0.8873     C
H       0.6883   0.8236   0.6457     H
H       0.6883   0.8647   0.1457     H
C        0.691    0.057    0.994     C
C        0.691    0.634    0.494     C
O       0.6993   0.2531     0.56     O
O       0.6993   0.4462     0.06     O
C       0.7119      0.0     0.13     C
C       0.7119   0.7119     0.63     C
H        0.715   0.8094   0.4564     H
H        0.715   0.9056   0.9564     H
H       0.7235   0.1408   0.3405     H
H       0.7235   0.5827   0.8405     H
H       0.7267    0.838   0.7195     H
H       0.7267   0.8887   0.2195     H
H       0.7421   0.1284   0.0287     H
H       0.7421   0.6137   0.5287     H
O       0.7469   0.3007     0.06     O
O       0.7469   0.4462     0.56     O
H       0.7498   0.1093   0.9529     H
H       0.7498   0.6405   0.4529     H
C        0.767    0.819    0.664     C
C        0.767    0.948    0.164     C
C        0.778    0.099    0.058     C
C        0.778    0.679    0.558     C
H       0.7897   0.8524   0.5557     H
H       0.7897   0.9373   0.0557     H
H       0.8094   0.0944   0.9564     H
H       0.8094    0.715   0.4564     H
C        0.819    0.052    0.164     C
C        0.819    0.767    0.664     C
H       0.8197    0.834    0.739     H
H       0.8197   0.9857    0.239     H
H       0.8236   0.1353   0.1457     H
H       0.8236   0.6883   0.6457     H
C       0.8267   0.3494   0.1095     C
C       0.8267   0.4773   0.6095     C
O        0.828   0.3851   0.2621     O
O        0.828   0.4429   0.7621     O
H        0.834   0.0143    0.239     H
H        0.834   0.8197    0.739     H
H        0.838   0.1113   0.2195     H
H        0.838   0.7267   0.7195     H
H       0.8524   0.0627   0.0557     H
H       0.8524   0.7897   0.5557     H
H       0.8592   0.2765   0.8405     H
H       0.8592   0.5827   0.3405     H
H       0.8647   0.1764   0.6457     H
H       0.8647   0.6883   0.1457     H
H       0.8716   0.2579   0.5287     H
H       0.8716   0.6137   0.0287     H
H       0.8887    0.162   0.7195     H
H       0.8887   0.7267   0.2195     H
H       0.8907   0.2502   0.4529     H
H       0.8907   0.6405   0.9529     H
C        0.901    0.222    0.558     C
C        0.901    0.679    0.058     C
H       0.9056   0.1906   0.4564     H
H       0.9056    0.715   0.9564     H
C        0.916   0.3674    0.044     C
C        0.916   0.5486    0.544     C
C       0.9169   0.3208   0.8873     C
C       0.9169   0.5961   0.3873     C
H       0.9191   0.3455   0.5468     H
H       0.9191   0.5736   0.0468     H
H       0.9373   0.1476   0.5557     H
H       0.9373   0.7897   0.0557     H
C        0.943    0.309    0.494     C
C        0.943    0.634    0.994     C
C        0.948    0.181    0.664     C
C        0.948    0.767    0.164     C
H       0.9824   0.3422   0.3971     H
H       0.9824   0.6402   0.8971     H
H       0.9857    0.166    0.739     H
H       0.9857   0.8197    0.239     H
