data_I
_chemical_name_common  '/home/zhangsd/repos/MofS-CGCNN/ML/data/WS24/clean_cifs/UBIPAY'
_cell_length_a  7.84940
_cell_length_b  9.98760
_cell_length_c 12.60670
_cell_angle_alpha 104.13100
_cell_angle_beta  91.09400
_cell_angle_gamma 111.88200
_space_group_name_H-M_alt      'P 1'


loop_
_space_group_symop_operation_xyz
  'x, y, z' 

loop_
_atom_site_label
_atom_site_fract_x
_atom_site_fract_y
_atom_site_fract_z
_atom_site_type_symbol
C       0.0117   0.2565   0.7103     C
Mn     0.01807  0.72108  0.53563    Mn
H       0.0297   0.2264   0.8636     H
N       0.0817   0.3413    0.645     N
C        0.086   0.2893   0.8199     C
H       0.0933   0.8306   0.3176     H
O       0.1287   0.4003   0.3522     O
O       0.1967   0.6001   0.4929     O
C       0.2114   0.5384   0.3954     C
O       0.2219   0.9569   0.5247     O
C       0.2292   0.4661   0.6887     C
O        0.237   0.8856   0.6733     O
C       0.2439   0.4163    0.862     C
H       0.2509   0.4766   0.1822     H
H       0.2682   0.3866   0.0189     H
H       0.2798   0.5294   0.6443     H
C        0.288   0.9829   0.6203     C
C       0.3125   0.5083   0.7957     C
C       0.3299   0.5748   0.2171     C
C       0.3328   0.6316   0.3299     C
C       0.3505   0.4391   0.9718     C
H       0.3718   0.1294   0.8321     H
H       0.4142   0.5983   0.8221     H
C       0.4305    0.134    0.678     C
C       0.4422   0.1908    0.791     C
C       0.4428   0.6624   0.1562     C
C       0.4558   0.7718   0.3819     C
H       0.4653   0.8064   0.4582     H
C       0.4746   0.6007   0.0371     C
H       0.4799   0.6709   0.9936     H
H       0.5201   0.3291   0.0064     H
C       0.5254   0.3993   0.9629     C
H       0.5347   0.1936   0.5418     H
C       0.5442   0.2282   0.6181     C
C       0.5572   0.3376   0.8438     C
C       0.5578   0.8092    0.209     C
C       0.5695    0.866    0.322     C
H       0.5858   0.4017   0.1779     H
H       0.6282   0.8706   0.1679     H
C       0.6495   0.5609   0.0282     C
C       0.6672   0.3684   0.6701     C
C       0.6701   0.4252   0.7829     C
C       0.6875   0.4917   0.2043     C
C        0.712   0.0171   0.3797     C
H       0.7202   0.4706   0.3557     H
H       0.7318   0.6134   0.9811     H
H       0.7491   0.5234   0.8178     H
C       0.7561   0.5837    0.138     C
O        0.763   0.1144   0.3267     O
C       0.7708   0.5339   0.3113     C
O       0.7781   0.0431   0.4753     O
C       0.7886   0.4616   0.6046     C
O       0.8033   0.3999   0.5071     O
O       0.8713   0.5997   0.6478     O
H       0.9067   0.1694   0.6824     H
C        0.914   0.7107   0.1801     C
N       0.9183   0.6587    0.355     N
H       0.9703   0.7736   0.1364     H
Mn     0.98193  0.27892  0.46437    Mn
C       0.9883   0.7435   0.2897     C
