data_I
_chemical_name_common  '/home/zhangsd/repos/MofS-CGCNN/ML/data/WS24/clean_cifs/UCOCUM'
_cell_length_a 18.60190
_cell_length_b 18.60190
_cell_length_c 18.60190
_cell_angle_alpha 60.00000
_cell_angle_beta  60.00000
_cell_angle_gamma 60.00000
_space_group_name_H-M_alt      'P 1'


loop_
_space_group_symop_operation_xyz
  'x, y, z' 

loop_
_atom_site_label
_atom_site_fract_x
_atom_site_fract_y
_atom_site_fract_z
_atom_site_type_symbol
H       0.0086   0.2282   0.2282     H
H       0.0086   0.2282    0.535     H
H       0.0086    0.535   0.2282     H
O       0.0089   0.4787   0.6263     O
O       0.0089   0.4787   0.8861     O
O       0.0089   0.6263   0.4787     O
O       0.0089   0.6263   0.8861     O
O       0.0089   0.8861   0.4787     O
O       0.0089   0.8861   0.6263     O
C        0.068    0.199    0.199     C
C        0.068    0.199    0.534     C
C        0.068    0.534    0.199     C
C       0.0688   0.0688    0.338     C
C       0.0688   0.0688   0.5244     C
C       0.0688    0.338   0.0688     C
C       0.0688    0.338   0.5244     C
C       0.0688   0.5244   0.0688     C
C       0.0688   0.5244    0.338     C
Cu     0.07046      0.5      0.5    Cu
Cu     0.07046      0.5  0.92954    Cu
Cu     0.07046  0.92954      0.5    Cu
C       0.1107   0.1107   0.2453     C
C       0.1107   0.1107   0.5333     C
C       0.1107   0.2453   0.1107     C
C       0.1107   0.2453   0.5333     C
C       0.1107   0.5333   0.1107     C
C       0.1107   0.5333   0.2453     C
O       0.1139   0.3737   0.5213     O
O       0.1139   0.3737   0.9911     O
O       0.1139   0.5213   0.3737     O
O       0.1139   0.5213   0.9911     O
O       0.1139   0.9911   0.3737     O
O       0.1139   0.9911   0.5213     O
C        0.199    0.068    0.199     C
C        0.199    0.068    0.534     C
C        0.199    0.199    0.068     C
C        0.199    0.199    0.534     C
C        0.199    0.534    0.068     C
C        0.199    0.534    0.199     C
H       0.2282   0.0086   0.2282     H
H       0.2282   0.0086    0.535     H
H       0.2282   0.2282   0.0086     H
H       0.2282   0.2282    0.535     H
H       0.2282    0.535   0.0086     H
H       0.2282    0.535   0.2282     H
C       0.2453   0.1107   0.1107     C
C       0.2453   0.1107   0.5333     C
C       0.2453   0.5333   0.1107     C
C        0.338   0.0688   0.0688     C
C        0.338   0.0688   0.5244     C
C        0.338   0.5244   0.0688     C
O       0.3737   0.1139   0.5213     O
O       0.3737   0.1139   0.9911     O
O       0.3737   0.5213   0.1139     O
O       0.3737   0.5213   0.9911     O
O       0.3737   0.9911   0.1139     O
O       0.3737   0.9911   0.5213     O
H        0.465   0.7718   0.7718     H
H        0.465   0.7718   0.9914     H
H        0.465   0.9914   0.7718     H
C        0.466    0.801    0.801     C
C        0.466    0.801    0.932     C
C        0.466    0.932    0.801     C
C       0.4667   0.7547   0.8893     C
C       0.4667   0.8893   0.7547     C
C       0.4667   0.8893   0.8893     C
C       0.4756    0.662   0.9312     C
C       0.4756   0.9312    0.662     C
C       0.4756   0.9312   0.9312     C
O       0.4787   0.0089   0.6263     O
O       0.4787   0.0089   0.8861     O
O       0.4787   0.6263   0.0089     O
O       0.4787   0.6263   0.8861     O
O       0.4787   0.8861   0.0089     O
O       0.4787   0.8861   0.6263     O
Cu         0.5  0.07046      0.5    Cu
Cu         0.5  0.07046  0.92954    Cu
Cu         0.5      0.5  0.07046    Cu
Cu         0.5      0.5  0.92954    Cu
Cu         0.5  0.92954  0.07046    Cu
Cu         0.5  0.92954      0.5    Cu
O       0.5213   0.1139   0.3737     O
O       0.5213   0.1139   0.9911     O
O       0.5213   0.3737   0.1139     O
O       0.5213   0.3737   0.9911     O
O       0.5213   0.9911   0.1139     O
O       0.5213   0.9911   0.3737     O
C       0.5244   0.0688   0.0688     C
C       0.5244   0.0688    0.338     C
C       0.5244    0.338   0.0688     C
C       0.5333   0.1107   0.1107     C
C       0.5333   0.1107   0.2453     C
C       0.5333   0.2453   0.1107     C
C        0.534    0.068    0.199     C
C        0.534    0.199    0.068     C
C        0.534    0.199    0.199     C
H        0.535   0.0086   0.2282     H
H        0.535   0.2282   0.0086     H
H        0.535   0.2282   0.2282     H
O       0.6263   0.0089   0.4787     O
O       0.6263   0.0089   0.8861     O
O       0.6263   0.4787   0.0089     O
O       0.6263   0.4787   0.8861     O
O       0.6263   0.8861   0.0089     O
O       0.6263   0.8861   0.4787     O
C        0.662   0.4756   0.9312     C
C        0.662   0.9312   0.4756     C
C        0.662   0.9312   0.9312     C
C       0.7547   0.4667   0.8893     C
C       0.7547   0.8893   0.4667     C
C       0.7547   0.8893   0.8893     C
H       0.7718    0.465   0.7718     H
H       0.7718    0.465   0.9914     H
H       0.7718   0.7718    0.465     H
H       0.7718   0.7718   0.9914     H
H       0.7718   0.9914    0.465     H
H       0.7718   0.9914   0.7718     H
C        0.801    0.466    0.801     C
C        0.801    0.466    0.932     C
C        0.801    0.801    0.466     C
C        0.801    0.801    0.932     C
C        0.801    0.932    0.466     C
C        0.801    0.932    0.801     C
O       0.8861   0.0089   0.4787     O
O       0.8861   0.0089   0.6263     O
O       0.8861   0.4787   0.0089     O
O       0.8861   0.4787   0.6263     O
O       0.8861   0.6263   0.0089     O
O       0.8861   0.6263   0.4787     O
C       0.8893   0.4667   0.7547     C
C       0.8893   0.4667   0.8893     C
C       0.8893   0.7547   0.4667     C
C       0.8893   0.7547   0.8893     C
C       0.8893   0.8893   0.4667     C
C       0.8893   0.8893   0.7547     C
Cu     0.92954  0.07046      0.5    Cu
Cu     0.92954      0.5  0.07046    Cu
Cu     0.92954      0.5      0.5    Cu
C       0.9312   0.4756    0.662     C
C       0.9312   0.4756   0.9312     C
C       0.9312    0.662   0.4756     C
C       0.9312    0.662   0.9312     C
C       0.9312   0.9312   0.4756     C
C       0.9312   0.9312    0.662     C
C        0.932    0.466    0.801     C
C        0.932    0.801    0.466     C
C        0.932    0.801    0.801     C
O       0.9911   0.1139   0.3737     O
O       0.9911   0.1139   0.5213     O
O       0.9911   0.3737   0.1139     O
O       0.9911   0.3737   0.5213     O
O       0.9911   0.5213   0.1139     O
O       0.9911   0.5213   0.3737     O
H       0.9914    0.465   0.7718     H
H       0.9914   0.7718    0.465     H
H       0.9914   0.7718   0.7718     H
