data_I
_chemical_name_common  '/home/zhangsd/repos/MofS-CGCNN/ML/data/WS24/clean_cifs/UDANAQ'
_cell_length_a  9.67790
_cell_length_b 14.63410
_cell_length_c 14.63410
_cell_angle_alpha 83.72290
_cell_angle_beta  70.69110
_cell_angle_gamma 70.69100
_space_group_name_H-M_alt      'P 1'


loop_
_space_group_symop_operation_xyz
  'x, y, z' 

loop_
_atom_site_label
_atom_site_fract_x
_atom_site_fract_y
_atom_site_fract_z
_atom_site_type_symbol
C          0.0   0.1314   0.8686     C
C          0.0   0.2086   0.7914     C
C          0.0   0.3511   0.6489     C
C          0.0   0.4283   0.5717     C
C          0.0   0.5717   0.4283     C
C          0.0   0.6489   0.3511     C
C          0.0   0.7914   0.2086     C
C          0.0   0.8686   0.1314     C
O       0.0127   0.1022   0.1022     O
H       0.0166   0.7788   0.7788     H
C       0.0633   0.4001   0.4733     C
C       0.0633   0.4733   0.4001     C
O       0.1149   0.1022   0.8978     O
O       0.1149   0.8978   0.1022     O
C       0.1211   0.2448   0.7552     C
C       0.1211   0.7552   0.2448     C
C       0.1218   0.3149   0.6851     C
C       0.1218   0.6851   0.3149     C
C       0.1237   0.7552   0.7552     C
C       0.1273   0.3017   0.4437     C
C       0.1273   0.4437   0.3017     C
H       0.1278   0.2535   0.4909     H
H       0.1278   0.4909   0.2535     H
C       0.1314   0.8686   0.8686     C
H       0.1326   0.6618   0.6618     H
Zn     0.15245     -0.0      0.0    Zn
C       0.1862    0.276   0.3516     C
C       0.1862   0.3516    0.276     C
C       0.1931   0.6851   0.6851     C
H       0.2046   0.2212   0.7788     H
H       0.2046   0.7788   0.2212     H
H       0.2056   0.3382   0.6618     H
H       0.2056   0.6618   0.3382     H
C       0.2086   0.7914   0.7914     C
O       0.2171   0.8978   0.8978     O
H       0.2274   0.2108   0.3344     H
H       0.2274   0.3344   0.2108     H
H        0.285    0.108    0.108     H
H       0.3112   0.1456      1.0     H
H       0.3112      1.0   0.1456     H
C       0.3511   0.6489   0.6489     C
C        0.354   0.0398    0.092     C
C        0.354    0.092   0.0398     C
N       0.3658      1.0      0.0     N
C       0.3659   0.7552   0.7552     C
H       0.3813   0.4909   0.7465     H
H       0.3813   0.7465   0.4909     H
H        0.393    0.108    0.892     H
H        0.393    0.892    0.108     H
C       0.3938    0.092   0.9602     C
C       0.3938   0.9602    0.092     C
H       0.4258   0.7788   0.7788     H
C       0.4283   0.5717   0.5717     C
C        0.429   0.4437   0.6983     C
C        0.429   0.6983   0.4437     C
C       0.4367   0.6851   0.6851     C
H       0.4382   0.3344   0.7892     H
H       0.4382   0.7892   0.3344     H
C        0.446   0.0398    0.908     C
C        0.446    0.908   0.0398     C
H       0.4562   0.3382   0.3382     H
H       0.4568   0.8544      1.0     H
H       0.4568      1.0   0.8544     H
C       0.4622   0.3516    0.724     C
C       0.4622    0.724   0.3516     C
C       0.4634   0.4733   0.5999     C
C       0.4634   0.5999   0.4733     C
C       0.4858    0.908   0.9602     C
C       0.4858   0.9602    0.908     C
H        0.499    0.108    0.108     H
H        0.501    0.892    0.892     H
C       0.5142   0.0398    0.092     C
C       0.5142    0.092   0.0398     C
C       0.5366   0.4001   0.5267     C
C       0.5366   0.5267   0.4001     C
C       0.5378    0.276   0.6484     C
C       0.5378   0.6484    0.276     C
H       0.5432     -0.0   0.1456     H
H       0.5432   0.1456      1.0     H
H       0.5438   0.6618   0.6618     H
C        0.554    0.092   0.9602     C
C        0.554   0.9602    0.092     C
H       0.5618   0.2108   0.6656     H
H       0.5618   0.6656   0.2108     H
C       0.5633   0.3149   0.3149     C
C        0.571   0.3017   0.5563     C
C        0.571   0.5563   0.3017     C
C       0.5717   0.4283   0.4283     C
H       0.5742   0.2212   0.2212     H
C       0.6062   0.0398    0.908     C
C       0.6062    0.908   0.0398     C
H        0.607    0.108    0.892     H
H        0.607    0.892    0.108     H
H       0.6187   0.2535   0.5091     H
H       0.6187   0.5091   0.2535     H
C       0.6341   0.2448   0.2448     C
N       0.6342      1.0      0.0     N
C        0.646    0.908   0.9602     C
C        0.646   0.9602    0.908     C
C       0.6489   0.3511   0.3511     C
H       0.6888     -0.0   0.8544     H
H       0.6888   0.8544     -0.0     H
H        0.715    0.892    0.892     H
H       0.7726   0.6656   0.7892     H
H       0.7726   0.7892   0.6656     H
O       0.7829   0.1022   0.1022     O
C       0.7914   0.2086   0.2086     C
H       0.7944   0.3382   0.6618     H
H       0.7944   0.6618   0.3382     H
H       0.7954   0.2212   0.7788     H
H       0.7954   0.7788   0.2212     H
C       0.8069   0.3149   0.3149     C
C       0.8138   0.6484    0.724     C
C       0.8138    0.724   0.6484     C
Zn     0.84755     -0.0      0.0    Zn
H       0.8674   0.3382   0.3382     H
C       0.8686   0.1314   0.1314     C
H       0.8722   0.5091   0.7465     H
H       0.8722   0.7465   0.5091     H
C       0.8727   0.5563   0.6983     C
C       0.8727   0.6983   0.5563     C
C       0.8763   0.2448   0.2448     C
C       0.8782   0.3149   0.6851     C
C       0.8782   0.6851   0.3149     C
C       0.8789   0.2448   0.7552     C
C       0.8789   0.7552   0.2448     C
O       0.8851   0.1022   0.8978     O
O       0.8851   0.8978   0.1022     O
C       0.9367   0.5267   0.5999     C
C       0.9367   0.5999   0.5267     C
H       0.9834   0.2212   0.2212     H
O       0.9873   0.8978   0.8978     O
