data_I
_chemical_name_common  '/home/zhangsd/repos/MofS-CGCNN/ML/data/WS24/clean_cifs/UFASAW'
_cell_length_a 11.31970
_cell_length_b 11.31970
_cell_length_c 37.35400
_cell_angle_alpha 90.00000
_cell_angle_beta  90.00000
_cell_angle_gamma 94.47070
_space_group_name_H-M_alt      'P 1'


loop_
_space_group_symop_operation_xyz
  'x, y, z' 

loop_
_atom_site_label
_atom_site_fract_x
_atom_site_fract_y
_atom_site_fract_z
_atom_site_type_symbol
O       0.0033   0.0033   0.2095     O
C       0.0071   0.3015   0.5457     C
H       0.0152   0.5152     0.75     H
C       0.0153   0.3067   0.5826     C
O       0.0155   0.6473   0.8515     O
H       0.0164   0.0164   0.3572     H
H       0.0206   0.2152    0.421     H
Cd     0.02065  0.61779  0.33569    Cd
C       0.0209   0.7291   0.5293     C
O       0.0267   0.8439   0.8613     O
C       0.0327   0.7381   0.5668     C
H       0.0371   0.2303   0.4831     H
C       0.0383   0.2483    0.147     C
Cd     0.03842  0.03842  0.84886    Cd
C       0.0466   0.5466     0.25     C
O       0.0483   0.2315   0.8398     O
H        0.059    0.727   0.9823     H
N       0.0604   0.1956   0.3518     N
N       0.0604    0.643   0.3961     N
H       0.0609   0.7253   0.0383     H
H       0.0623   0.7109   0.1004     H
H       0.0659   0.2655   0.5323     H
O         0.07     0.07   0.9075     O
O       0.0724   0.4206   0.3439     O
N       0.0753   0.6139   0.2792     N
C       0.0778   0.0778   0.3542     C
O       0.0794   0.4276   0.8439     O
H       0.0799   0.2719   0.5935     H
H       0.0829   0.7439   0.9202     H
C       0.0832   0.6532   0.4712     C
C       0.0965   0.6609   0.5111     C
C       0.0968    0.652   0.0867     C
Cd     0.09802  0.69322   0.6479    Cd
C       0.0983   0.6625   0.0494     C
H       0.1011   0.1011   0.6748     H
C       0.1077   0.6751   0.9702     C
N       0.1086   0.6884   0.5857     N
N       0.1139   0.5753   0.2208     N
C       0.1144   0.3228   0.8434     C
Cd     0.11779  0.52065  0.16431    Cd
C       0.1209   0.6847   0.9328     C
N        0.143   0.5604   0.1039     N
N       0.1462    0.277   0.6639     N
O       0.1473   0.5155   0.6485     O
O        0.151   0.6942   0.7118     O
C        0.152   0.5968   0.4133     C
C       0.1532   0.5832   0.0288     C
O       0.1561   0.9733   0.1387     O
C       0.1609   0.5965   0.9889     C
C       0.1612   0.1612   0.6689     C
C       0.1625   0.5983   0.4506     C
C       0.1655   0.2505   0.1546     C
C       0.1691   0.6921   0.2672     C
C       0.1692    0.257   0.3477     C
C       0.1751   0.6077   0.5298     C
C       0.1772   0.3856   0.3434     C
O       0.1785   0.7635    0.327     O
C       0.1847   0.6209   0.5672     C
N       0.1884   0.6086   0.9143     N
C       0.1921   0.6691   0.2328     C
Cd     0.19322  0.59802   0.8521    Cd
C       0.1933   0.4847   0.0826     C
O       0.1942    0.651   0.7882     O
N       0.1956   0.0604   0.3518     N
C       0.1985   0.4929   0.0457     C
H       0.2109   0.5623   0.3996     H
H       0.2152   0.0206    0.421     H
C        0.221   0.7758   0.2949     C
N        0.223   0.3538   0.1639     N
C       0.2242    0.779   0.7051     C
H       0.2253   0.5609   0.4617     H
H        0.227    0.559   0.5177     H
H       0.2281   0.4201   0.0935     H
C       0.2291   0.5209   0.9707     C
H       0.2303   0.0371   0.4831     H
O       0.2315   0.0483   0.8398     O
H       0.2345   0.4341   0.0323     H
O       0.2365   0.8215    0.673     O
C       0.2381   0.5327   0.9332     C
C        0.243   0.3308   0.8477     C
H       0.2439   0.5829   0.5798     H
C       0.2483   0.0383    0.147     C
C       0.2495   0.3345   0.6546     C
C       0.2505   0.1655   0.1546     C
C       0.2517   0.4617    0.647     C
H       0.2561   0.9171   0.0798     H
C        0.257   0.1692   0.3477     C
C       0.2619   0.9673   0.4332     C
O       0.2635   0.6785    0.173     O
H       0.2655   0.0659   0.5323     H
O       0.2685   0.4517   0.3398     O
H       0.2697   0.4629   0.9831     H
C       0.2709   0.9791   0.4707     C
H       0.2719   0.0799   0.5935     H
H        0.273    0.941   0.0177     H
H       0.2747   0.9391   0.9617     H
C       0.2758    0.721   0.2051     C
N        0.277   0.1462   0.6639     N
C        0.279   0.7242   0.7949     C
H       0.2848   0.4794    0.921     H
H       0.2891   0.9377   0.8996     H
C       0.3015   0.0071   0.5457     C
N       0.3044   0.4396   0.8518     N
O       0.3058    0.849   0.2882     O
C       0.3067   0.0153   0.5826     C
Cd     0.30678  0.90198   0.3521    Cd
C       0.3079   0.8309   0.7328     C
N       0.3116   0.8914   0.4143     N
C       0.3153   0.8791   0.0672     C
O       0.3215   0.7365    0.827     O
C       0.3228   0.1144   0.8434     C
C       0.3249   0.8923   0.0298     C
C       0.3308    0.243   0.8477     C
C       0.3309   0.8079   0.7672     C
C       0.3345   0.2495   0.6546     C
C       0.3375   0.9017   0.9506     C
C       0.3388   0.3388   0.1689     C
C       0.3391   0.9035   0.4889     C
O       0.3439   0.5267   0.6387     O
C       0.3468   0.9168   0.5288     C
C        0.348   0.9032   0.9133     C
O        0.349   0.8058   0.2118     O
O       0.3527   0.9845   0.1485     O
N       0.3538    0.223   0.1639     N
N        0.357   0.9396   0.6039     N
C       0.3791   0.8153   0.4328     C
Cd     0.38221  0.97935  0.66431    Cd
C       0.3856   0.1772   0.3434     C
N       0.3861   0.9247   0.7208     N
N       0.3914   0.8116   0.0857     N
C       0.3923   0.8249   0.4702     C
H       0.3989   0.3989   0.1748     H
C       0.4017   0.8375   0.5494     C
Cd     0.40198  0.80678   0.1479    Cd
C       0.4032    0.848   0.5867     C
C       0.4035   0.8391   0.0111     C
C       0.4168   0.8468   0.9712     C
H       0.4171   0.7561   0.4202     H
H       0.4201   0.2281   0.0935     H
O       0.4206   0.0724   0.3439     O
C       0.4222   0.4222   0.8542     C
N       0.4247   0.8861   0.7792     N
O       0.4276   0.0794   0.8439     O
O         0.43     0.43   0.4075     O
H       0.4341   0.2345   0.0323     H
H       0.4377   0.7891   0.6004     H
H       0.4391   0.7747   0.5383     H
N       0.4396   0.3044   0.8518     N
N       0.4396    0.857   0.8961     N
H        0.441    0.773   0.4823     H
O       0.4517   0.2685   0.3398     O
C       0.4534   0.9534     0.75     C
Cd     0.46158  0.46158  0.34886    Cd
C       0.4617   0.2517    0.647     C
H       0.4629   0.2697   0.9831     H
C       0.4673   0.7619   0.0668     C
O       0.4733   0.6561   0.3613     O
C       0.4791   0.7709   0.0293     C
Cd     0.47935  0.88221  0.83569    Cd
H       0.4794   0.2848    0.921     H
H       0.4836   0.4836   0.8572     H
O       0.4845   0.8527   0.3515     O
C       0.4847   0.1933   0.0826     C
H       0.4848   0.9848     0.25     H
C       0.4929   0.1985   0.0457     C
O       0.4967   0.4967   0.7095     O
O       0.5033   0.5033   0.2905     O
C       0.5071   0.8015   0.9543     C
H       0.5152   0.0152     0.75     H
C       0.5153   0.8067   0.9174     C
O       0.5155   0.1473   0.6485     O
H       0.5164   0.5164   0.1428     H
H       0.5206   0.7152    0.079     H
Cd     0.52065  0.11779  0.16431    Cd
C       0.5209   0.2291   0.9707     C
O       0.5267   0.3439   0.6387     O
C       0.5327   0.2381   0.9332     C
H       0.5371   0.7303   0.0169     H
C       0.5383   0.7483    0.353     C
Cd     0.53842  0.53842  0.65114    Cd
C       0.5466   0.0466     0.25     C
O       0.5483   0.7315   0.6602     O
H        0.559    0.227   0.5177     H
N       0.5604    0.143   0.1039     N
N       0.5604   0.6956   0.1482     N
H       0.5609   0.2253   0.4617     H
H       0.5623   0.2109   0.3996     H
H       0.5659   0.7655   0.9677     H
O         0.57     0.57   0.5925     O
O       0.5724   0.9206   0.1561     O
N       0.5753   0.1139   0.2208     N
C       0.5778   0.5778   0.1458     C
O       0.5794   0.9276   0.6561     O
H       0.5799   0.7719   0.9065     H
H       0.5829   0.2439   0.5798     H
C       0.5832   0.1532   0.0288     C
C       0.5965   0.1609   0.9889     C
C       0.5968    0.152   0.4133     C
Cd     0.59802  0.19322   0.8521    Cd
C       0.5983   0.1625   0.4506     C
H       0.6011   0.6011   0.8252     H
C       0.6077   0.1751   0.5298     C
N       0.6086   0.1884   0.9143     N
N       0.6139   0.0753   0.2792     N
C       0.6144   0.8228   0.6566     C
Cd     0.61779  0.02065  0.33569    Cd
C       0.6209   0.1847   0.5672     C
N        0.643   0.0604   0.3961     N
N       0.6462    0.777   0.8361     N
O       0.6473   0.0155   0.8515     O
O        0.651   0.1942   0.7882     O
C        0.652   0.0968   0.0867     C
C       0.6532   0.0832   0.4712     C
O       0.6561   0.4733   0.3613     O
C       0.6609   0.0965   0.5111     C
C       0.6612   0.6612   0.8311     C
C       0.6625   0.0983   0.0494     C
C       0.6655   0.7505   0.3454     C
C       0.6691   0.1921   0.2328     C
C       0.6692    0.757   0.1523     C
C       0.6751   0.1077   0.9702     C
C       0.6772   0.8856   0.1566     C
O       0.6785   0.2635    0.173     O
C       0.6847   0.1209   0.9328     C
N       0.6884   0.1086   0.5857     N
C       0.6921   0.1691   0.2672     C
Cd     0.69322  0.09802   0.6479    Cd
C       0.6933   0.9847   0.4174     C
O       0.6942    0.151   0.7118     O
N       0.6956   0.5604   0.1482     N
C       0.6985   0.9929   0.4543     C
H       0.7109   0.0623   0.1004     H
H       0.7152   0.5206    0.079     H
C        0.721   0.2758   0.2051     C
N        0.723   0.8538   0.3361     N
C       0.7242    0.279   0.7949     C
H       0.7253   0.0609   0.0383     H
H        0.727    0.059   0.9823     H
H       0.7281   0.9201   0.4065     H
C       0.7291   0.0209   0.5293     C
H       0.7303   0.5371   0.0169     H
O       0.7315   0.5483   0.6602     O
H       0.7345   0.9341   0.4677     H
O       0.7365   0.3215    0.827     O
C       0.7381   0.0327   0.5668     C
C        0.743   0.8308   0.6523     C
H       0.7439   0.0829   0.9202     H
C       0.7483   0.5383    0.353     C
C       0.7495   0.8345   0.8454     C
C       0.7505   0.6655   0.3454     C
C       0.7517   0.9617    0.853     C
H       0.7561   0.4171   0.4202     H
C        0.757   0.6692   0.1523     C
C       0.7619   0.4673   0.0668     C
O       0.7635   0.1785    0.327     O
H       0.7655   0.5659   0.9677     H
O       0.7685   0.9517   0.1602     O
H       0.7697   0.9629   0.5169     H
C       0.7709   0.4791   0.0293     C
H       0.7719   0.5799   0.9065     H
H        0.773    0.441   0.4823     H
H       0.7747   0.4391   0.5383     H
C       0.7758    0.221   0.2949     C
N        0.777   0.6462   0.8361     N
C        0.779   0.2242   0.7051     C
H       0.7848   0.9794    0.579     H
H       0.7891   0.4377   0.6004     H
C       0.8015   0.5071   0.9543     C
N       0.8044   0.9396   0.6482     N
O       0.8058    0.349   0.2118     O
C       0.8067   0.5153   0.9174     C
Cd     0.80678  0.40198   0.1479    Cd
C       0.8079   0.3309   0.7672     C
N       0.8116   0.3914   0.0857     N
C       0.8153   0.3791   0.4328     C
O       0.8215   0.2365    0.673     O
C       0.8228   0.6144   0.6566     C
C       0.8249   0.3923   0.4702     C
C       0.8308    0.743   0.6523     C
C       0.8309   0.3079   0.7328     C
C       0.8345   0.7495   0.8454     C
C       0.8375   0.4017   0.5494     C
C       0.8388   0.8388   0.3311     C
C       0.8391   0.4035   0.0111     C
O       0.8439   0.0267   0.8613     O
C       0.8468   0.4168   0.9712     C
C        0.848   0.4032   0.5867     C
O        0.849   0.3058   0.2882     O
O       0.8527   0.4845   0.3515     O
N       0.8538    0.723   0.3361     N
N        0.857   0.4396   0.8961     N
C       0.8791   0.3153   0.0672     C
Cd     0.88221  0.47935  0.83569    Cd
C       0.8856   0.6772   0.1566     C
N       0.8861   0.4247   0.7792     N
N       0.8914   0.3116   0.4143     N
C       0.8923   0.3249   0.0298     C
H       0.8989   0.8989   0.3252     H
C       0.9017   0.3375   0.9506     C
Cd     0.90198  0.30678   0.3521    Cd
C       0.9032    0.348   0.9133     C
C       0.9035   0.3391   0.4889     C
C       0.9168   0.3468   0.5288     C
H       0.9171   0.2561   0.0798     H
H       0.9201   0.7281   0.4065     H
O       0.9206   0.5724   0.1561     O
C       0.9222   0.9222   0.6458     C
N       0.9247   0.3861   0.7208     N
O       0.9276   0.5794   0.6561     O
O         0.93     0.93   0.0925     O
H       0.9341   0.7345   0.4677     H
H       0.9377   0.2891   0.8996     H
H       0.9391   0.2747   0.9617     H
N       0.9396    0.357   0.6039     N
N       0.9396   0.8044   0.6482     N
H        0.941    0.273   0.0177     H
O       0.9517   0.7685   0.1602     O
C       0.9534   0.4534     0.75     C
Cd     0.96158  0.96158  0.15114    Cd
C       0.9617   0.7517    0.853     C
H       0.9629   0.7697   0.5169     H
C       0.9673   0.2619   0.4332     C
O       0.9733   0.1561   0.1387     O
C       0.9791   0.2709   0.4707     C
Cd     0.97935  0.38221  0.66431    Cd
H       0.9794   0.7848    0.579     H
H       0.9836   0.9836   0.6428     H
O       0.9845   0.3527   0.1485     O
C       0.9847   0.6933   0.4174     C
H       0.9848   0.4848     0.25     H
C       0.9929   0.6985   0.4543     C
O       0.9967   0.9967   0.7905     O
