data_I
_chemical_name_common  '/home/zhangsd/repos/MofS-CGCNN/ML/data/WS24/clean_cifs/UGOFUT'
_cell_length_a  6.83530
_cell_length_b 32.35500
_cell_length_c 16.89600
_cell_angle_alpha 90.00000
_cell_angle_beta  90.00000
_cell_angle_gamma 90.00000
_space_group_name_H-M_alt      'P 1'


loop_
_space_group_symop_operation_xyz
  'x, y, z' 

loop_
_atom_site_label
_atom_site_fract_x
_atom_site_fract_y
_atom_site_fract_z
_atom_site_type_symbol
H          0.0   0.1926      0.0     H
O          0.0   0.2222      0.0     O
C          0.0    0.301   0.1097     C
C          0.0    0.301   0.8903     C
C          0.0   0.3327   0.1744     C
C          0.0   0.3327   0.8256     C
H          0.0   0.3462   0.4271     H
H          0.0   0.3462   0.5729     H
C          0.0   0.3701   0.4604     C
C          0.0   0.3701   0.5396     C
C          0.0   0.3922    0.294     C
C          0.0   0.3922    0.706     C
C          0.0   0.4125   0.4356     C
C          0.0   0.4125   0.5644     C
C          0.0   0.4255   0.3563     C
C          0.0   0.4255   0.6437     C
N          0.0   0.4384      0.5     N
H          0.0   0.4621   0.2067     H
H          0.0   0.4621   0.7933     H
C          0.0   0.4659   0.3326     C
C          0.0   0.4659   0.6674     C
C          0.0   0.4794   0.2512     C
C          0.0   0.4794   0.7488     C
N          0.0      0.5   0.3817     N
Fe         0.0      0.5      0.5    Fe
N          0.0      0.5   0.6183     N
C          0.0   0.5206   0.2512     C
C          0.0   0.5206   0.7488     C
C          0.0   0.5341   0.3326     C
C          0.0   0.5341   0.6674     C
H          0.0   0.5379   0.2067     H
H          0.0   0.5379   0.7933     H
N          0.0   0.5616      0.5     N
C          0.0   0.5745   0.3563     C
C          0.0   0.5745   0.6437     C
C          0.0   0.5875   0.4356     C
C          0.0   0.5875   0.5644     C
C          0.0   0.6078    0.294     C
C          0.0   0.6078    0.706     C
C          0.0   0.6299   0.4604     C
C          0.0   0.6299   0.5396     C
H          0.0   0.6538   0.4271     H
H          0.0   0.6538   0.5729     H
C          0.0   0.6673   0.1744     C
C          0.0   0.6673   0.8256     C
C          0.0    0.699   0.1097     C
C          0.0    0.699   0.8903     C
O          0.0   0.7778      0.0     O
H          0.0   0.8074      0.0     H
C       0.1023   0.0241   0.4531     C
C       0.1023   0.0241   0.5469     C
C       0.1023   0.9759   0.4531     C
C       0.1023   0.9759   0.5469     C
O       0.1615  0.28965   0.0847     O
O       0.1615  0.28965   0.9153     O
O       0.1615  0.71035   0.0847     O
O       0.1615  0.71035   0.9153     O
C       0.1696   0.3772    0.264     C
C       0.1696   0.3772    0.736     C
C       0.1696   0.6228    0.264     C
C       0.1696   0.6228    0.736     C
C       0.1709   0.3475   0.2051     C
C       0.1709   0.3475   0.7949     C
C       0.1709   0.6525   0.2051     C
C       0.1709   0.6525   0.7949     C
H       0.1854   0.0407   0.4213     H
H       0.1854   0.0407   0.5787     H
H       0.1854   0.9593   0.4213     H
H       0.1854   0.9593   0.5787     H
N       0.2103      0.0      0.5     N
H       0.2122   0.1623   0.1861     H
H       0.2122   0.1623   0.8139     H
H       0.2122   0.8377   0.1861     H
H       0.2122   0.8377   0.8139     H
H       0.2123   0.1133    0.284     H
H       0.2123   0.1133    0.716     H
H       0.2123   0.8867    0.284     H
H       0.2123   0.8867    0.716     H
Fe        0.25     0.25      0.0    Fe
Fe        0.25     0.75      0.0    Fe
H       0.2877   0.3867    0.284     H
H       0.2877   0.3867    0.716     H
H       0.2877   0.6133    0.284     H
H       0.2877   0.6133    0.716     H
H       0.2878   0.3377   0.1861     H
H       0.2878   0.3377   0.8139     H
H       0.2878   0.6623   0.1861     H
H       0.2878   0.6623   0.8139     H
N       0.2897      0.5      0.5     N
H       0.3146   0.4593   0.4213     H
H       0.3146   0.4593   0.5787     H
H       0.3146   0.5407   0.4213     H
H       0.3146   0.5407   0.5787     H
C       0.3291   0.1525   0.2051     C
C       0.3291   0.1525   0.7949     C
C       0.3291   0.8475   0.2051     C
C       0.3291   0.8475   0.7949     C
C       0.3304   0.1228    0.264     C
C       0.3304   0.1228    0.736     C
C       0.3304   0.8772    0.264     C
C       0.3304   0.8772    0.736     C
O       0.3385  0.21035   0.0847     O
O       0.3385  0.21035   0.9153     O
O       0.3385  0.78965   0.0847     O
O       0.3385  0.78965   0.9153     O
C       0.3977   0.4759   0.4531     C
C       0.3977   0.4759   0.5469     C
C       0.3977   0.5241   0.4531     C
C       0.3977   0.5241   0.5469     C
N          0.5      0.0   0.3817     N
Fe         0.5      0.0      0.5    Fe
N          0.5      0.0   0.6183     N
C          0.5   0.0206   0.2512     C
C          0.5   0.0206   0.7488     C
C          0.5   0.0341   0.3326     C
C          0.5   0.0341   0.6674     C
H          0.5   0.0379   0.2067     H
H          0.5   0.0379   0.7933     H
N          0.5   0.0616      0.5     N
C          0.5   0.0745   0.3563     C
C          0.5   0.0745   0.6437     C
C          0.5   0.0875   0.4356     C
C          0.5   0.0875   0.5644     C
C          0.5   0.1078    0.294     C
C          0.5   0.1078    0.706     C
C          0.5   0.1299   0.4604     C
C          0.5   0.1299   0.5396     C
H          0.5   0.1538   0.4271     H
H          0.5   0.1538   0.5729     H
C          0.5   0.1673   0.1744     C
C          0.5   0.1673   0.8256     C
C          0.5    0.199   0.1097     C
C          0.5    0.199   0.8903     C
O          0.5   0.2778      0.0     O
H          0.5   0.3074      0.0     H
H          0.5   0.6926      0.0     H
O          0.5   0.7222      0.0     O
C          0.5    0.801   0.1097     C
C          0.5    0.801   0.8903     C
C          0.5   0.8327   0.1744     C
C          0.5   0.8327   0.8256     C
H          0.5   0.8462   0.4271     H
H          0.5   0.8462   0.5729     H
C          0.5   0.8701   0.4604     C
C          0.5   0.8701   0.5396     C
C          0.5   0.8922    0.294     C
C          0.5   0.8922    0.706     C
C          0.5   0.9125   0.4356     C
C          0.5   0.9125   0.5644     C
C          0.5   0.9255   0.3563     C
C          0.5   0.9255   0.6437     C
N          0.5   0.9384      0.5     N
H          0.5   0.9621   0.2067     H
H          0.5   0.9621   0.7933     H
C          0.5   0.9659   0.3326     C
C          0.5   0.9659   0.6674     C
C          0.5   0.9794   0.2512     C
C          0.5   0.9794   0.7488     C
C       0.6023   0.4759   0.4531     C
C       0.6023   0.4759   0.5469     C
C       0.6023   0.5241   0.4531     C
C       0.6023   0.5241   0.5469     C
O       0.6615  0.21035   0.0847     O
O       0.6615  0.21035   0.9153     O
O       0.6615  0.78965   0.0847     O
O       0.6615  0.78965   0.9153     O
C       0.6696   0.1228    0.264     C
C       0.6696   0.1228    0.736     C
C       0.6696   0.8772    0.264     C
C       0.6696   0.8772    0.736     C
C       0.6709   0.1525   0.2051     C
C       0.6709   0.1525   0.7949     C
C       0.6709   0.8475   0.2051     C
C       0.6709   0.8475   0.7949     C
H       0.6854   0.4593   0.4213     H
H       0.6854   0.4593   0.5787     H
H       0.6854   0.5407   0.4213     H
H       0.6854   0.5407   0.5787     H
N       0.7103      0.5      0.5     N
H       0.7122   0.3377   0.1861     H
H       0.7122   0.3377   0.8139     H
H       0.7122   0.6623   0.1861     H
H       0.7122   0.6623   0.8139     H
H       0.7123   0.3867    0.284     H
H       0.7123   0.3867    0.716     H
H       0.7123   0.6133    0.284     H
H       0.7123   0.6133    0.716     H
Fe        0.75     0.25      0.0    Fe
Fe        0.75     0.75      0.0    Fe
H       0.7877   0.1133    0.284     H
H       0.7877   0.1133    0.716     H
H       0.7877   0.8867    0.284     H
H       0.7877   0.8867    0.716     H
H       0.7878   0.1623   0.1861     H
H       0.7878   0.1623   0.8139     H
H       0.7878   0.8377   0.1861     H
H       0.7878   0.8377   0.8139     H
N       0.7897      0.0      0.5     N
H       0.8146   0.0407   0.4213     H
H       0.8146   0.0407   0.5787     H
H       0.8146   0.9593   0.4213     H
H       0.8146   0.9593   0.5787     H
C       0.8291   0.3475   0.2051     C
C       0.8291   0.3475   0.7949     C
C       0.8291   0.6525   0.2051     C
C       0.8291   0.6525   0.7949     C
C       0.8304   0.3772    0.264     C
C       0.8304   0.3772    0.736     C
C       0.8304   0.6228    0.264     C
C       0.8304   0.6228    0.736     C
O       0.8385  0.28965   0.0847     O
O       0.8385  0.28965   0.9153     O
O       0.8385  0.71035   0.0847     O
O       0.8385  0.71035   0.9153     O
C       0.8977   0.0241   0.4531     C
C       0.8977   0.0241   0.5469     C
C       0.8977   0.9759   0.4531     C
C       0.8977   0.9759   0.5469     C
