data_I
_chemical_name_common  '/home/zhangsd/repos/MofS-CGCNN/ML/data/WS24/clean_cifs/UiO-2,6-NDC'
_cell_length_a 23.78530
_cell_length_b 23.78530
_cell_length_c 23.78530
_cell_angle_alpha 90.00000
_cell_angle_beta  90.00000
_cell_angle_gamma 90.00000
_space_group_name_H-M_alt      'P 1'


loop_
_space_group_symop_operation_xyz
  'x, y, z' 

loop_
_atom_site_label
_atom_site_fract_x
_atom_site_fract_y
_atom_site_fract_z
_atom_site_type_symbol
Zr         0.0     -0.0  0.10537    Zr
Zr        -0.0     -0.0  0.89463    Zr
Zr        -0.0  0.10718     -0.0    Zr
Zr        -0.0  0.39282      0.5    Zr
Zr        -0.0      0.5  0.39463    Zr
Zr         0.0      0.5  0.60537    Zr
Zr        -0.0  0.60718      0.5    Zr
Zr        -0.0  0.89282      0.0    Zr
O      0.00104  0.07847   0.8501     O
O      0.00104  0.42153   0.6499     O
O      0.00104  0.57847   0.3501     O
O      0.00104  0.92153   0.1499     O
O       0.0048  0.14932  0.91364     O
O       0.0048  0.35068  0.58636     O
O       0.0048  0.64932  0.41364     O
O       0.0048  0.85068  0.08636     O
C      0.00725  0.12976  0.86413     C
C      0.00725  0.37024  0.63587     C
C      0.00725  0.62976  0.36413     C
C      0.00725  0.87024  0.13587     C
C      0.01643  0.16805  0.81593     C
C      0.01643  0.33195  0.68407     C
C      0.01643  0.66805  0.31593     C
C      0.01643  0.83195  0.18407     C
H      0.01744  0.09925  0.75668     H
H      0.01744  0.40075  0.74332     H
H      0.01744  0.59925  0.25668     H
H      0.01744  0.90075  0.24332     H
H      0.01792  0.24183  0.86676     H
H      0.01792  0.25817  0.63324     H
H      0.01792  0.74183  0.36676     H
H      0.01792  0.75817  0.13324     H
C      0.01907  0.14451  0.76104     C
C      0.01907  0.35549  0.73896     C
C      0.01907  0.64451  0.26104     C
C      0.01907  0.85549  0.23896     C
C      0.01962  0.22516  0.82432     C
C      0.01962  0.27484  0.67568     C
C      0.01962  0.72516  0.32432     C
C      0.01962  0.77484  0.17568     C
C      0.02236  0.17905  0.71517     C
C      0.02236  0.32095  0.78483     C
C      0.02236  0.67905  0.21517     C
C      0.02236  0.82095  0.28483     C
C      0.02248  0.23827  0.72223     C
C      0.02248  0.26173  0.77777     C
C      0.02248  0.73827  0.22223     C
C      0.02248  0.76173  0.27777     C
H      0.02344  0.16187  0.67285     H
H      0.02344  0.33813  0.82715     H
H      0.02344  0.66187  0.17285     H
H      0.02344  0.83813  0.32715     H
O      0.04258  0.04473  0.95626     O
O      0.04258  0.45527  0.54374     O
O      0.04258  0.54473  0.45626     O
O      0.04258  0.95527  0.04374     O
O      0.05844  0.06016  0.05927     O
O      0.05844  0.43984  0.44073     O
O      0.05844  0.56016  0.55927     O
O      0.05844  0.93984  0.94073     O
H      0.08284  0.08238  0.08268     H
H      0.08284  0.41762  0.41732     H
H      0.08284  0.58238  0.58268     H
H      0.08284  0.91762  0.91732     H
O      0.08368  0.15163  0.99719     O
O      0.08368  0.34837  0.50281     O
O      0.08368  0.65163  0.49719     O
O      0.08368  0.84837  0.00281     O
O      0.08618  0.00458  0.85095     O
O      0.08618  0.49542  0.64905     O
O      0.08618  0.50458  0.35095     O
O      0.08618  0.99542  0.14905     O
Zr     0.10337     -0.0     -0.0    Zr
Zr     0.10337      0.5      0.5    Zr
H      0.13299  0.24462  0.98616     H
H      0.13299  0.25538  0.51384     H
H      0.13299  0.74462  0.48616     H
H      0.13299  0.75538  0.01384     H
H      0.13323   0.0157  0.75823     H
H      0.13323   0.4843  0.74177     H
H      0.13323   0.5157  0.25823     H
H      0.13323   0.9843  0.24177     H
C      0.13326  0.13172  0.99365     C
C      0.13326  0.36828  0.50635     C
C      0.13326  0.63172  0.49365     C
C      0.13326  0.86828  0.00635     C
C      0.13572  0.00625  0.87034     C
C      0.13572  0.49375  0.62966     C
C      0.13572  0.50625  0.37034     C
C      0.13572  0.99375  0.12966     C
O       0.1465  0.08033  0.99652     O
O       0.1465  0.41967  0.50348     O
O       0.1465  0.58033  0.49652     O
O       0.1465  0.91967  0.00348     O
O      0.14935  0.00025  0.92165     O
O      0.14935  0.49975  0.57835     O
O      0.14935  0.50025  0.42165     O
O      0.14935  0.99975  0.07835     O
H       0.1728  0.02016   0.6619     H
H       0.1728  0.47984   0.8381     H
H       0.1728  0.52016   0.1619     H
H       0.1728  0.97984   0.3381     H
H      0.17487  0.16016  0.51803     H
H      0.17487  0.33984  0.98197     H
H      0.17487  0.66016  0.01803     H
H      0.17487  0.83984  0.48197     H
C      0.17503  0.22693  0.98484     C
C      0.17503  0.27307  0.51516     C
C      0.17503  0.72693  0.48484     C
C      0.17503  0.77307  0.01516     C
C      0.17569  0.01707  0.77486     C
C      0.17569  0.48293  0.72514     C
C      0.17569  0.51707  0.27486     C
C      0.17569  0.98293  0.22514     C
C      0.18211  0.16966  0.98702     C
C      0.18211  0.33034  0.51298     C
C      0.18211  0.66966  0.48702     C
C      0.18211  0.83034  0.01298     C
C      0.18408  0.01421  0.83197     C
C      0.18408  0.48579  0.66803     C
C      0.18408  0.51421  0.33197     C
C      0.18408  0.98579  0.16803     C
C      0.21514  0.01929  0.67906     C
C      0.21514  0.48071  0.82094     C
C      0.21514  0.51929  0.17906     C
C      0.21514  0.98071  0.32094     C
C      0.21678  0.17833  0.51727     C
C      0.21678  0.32167  0.98273     C
C      0.21678  0.67833  0.01727     C
C      0.21678  0.82167  0.48273     C
C      0.22223  0.01953  0.73827     C
C      0.22223  0.48047  0.76173     C
C      0.22223  0.51953  0.23827     C
C      0.22223  0.98047  0.26173     C
C       0.2225  0.23764   0.5173     C
C       0.2225  0.26236   0.9827     C
C       0.2225  0.73764   0.0173     C
C       0.2225  0.76236   0.4827     C
C      0.23652  0.14492  0.98501     C
C      0.23652  0.35508  0.51499     C
C      0.23652  0.64492  0.48501     C
C      0.23652  0.85508  0.01499     C
C      0.23898  0.01634  0.85548     C
C      0.23898  0.48366  0.64452     C
C      0.23898  0.51634  0.35548     C
C      0.23898  0.98366  0.14452     C
H      0.23979  0.09958  0.98617     H
H      0.23979  0.40042  0.51383     H
H      0.23979  0.59958  0.48617     H
H      0.23979  0.90042  0.01383     H
H      0.24332  0.01467  0.90074     H
H      0.24332  0.48533  0.59926     H
H      0.24332  0.51467  0.40074     H
H      0.24332  0.98533  0.09926     H
H      0.25668  0.01467  0.59926     H
H      0.25668  0.48533  0.90074     H
H      0.25668  0.51467  0.09926     H
H      0.25668  0.98533  0.40074     H
H      0.26021  0.09958  0.51383     H
H      0.26021  0.40042  0.98617     H
H      0.26021  0.59958  0.01383     H
H      0.26021  0.90042  0.48617     H
C      0.26102  0.01634  0.64452     C
C      0.26102  0.48366  0.85548     C
C      0.26102  0.51634  0.14452     C
C      0.26102  0.98366  0.35548     C
C      0.26348  0.14492  0.51499     C
C      0.26348  0.35508  0.98501     C
C      0.26348  0.64492  0.01499     C
C      0.26348  0.85508  0.48501     C
C       0.2775  0.23764   0.9827     C
C       0.2775  0.26236   0.5173     C
C       0.2775  0.73764   0.4827     C
C       0.2775  0.76236   0.0173     C
C      0.27777  0.01953  0.76173     C
C      0.27777  0.48047  0.73827     C
C      0.27777  0.51953  0.26173     C
C      0.27777  0.98047  0.23827     C
C      0.28322  0.17833  0.98273     C
C      0.28322  0.32167  0.51727     C
C      0.28322  0.67833  0.48273     C
C      0.28322  0.82167  0.01727     C
C      0.28486  0.01929  0.82094     C
C      0.28486  0.48071  0.67906     C
C      0.28486  0.51929  0.32094     C
C      0.28486  0.98071  0.17906     C
C      0.31592  0.01421  0.66803     C
C      0.31592  0.48579  0.83197     C
C      0.31592  0.51421  0.16803     C
C      0.31592  0.98579  0.33197     C
C      0.31789  0.16966  0.51298     C
C      0.31789  0.33034  0.98702     C
C      0.31789  0.66966  0.01298     C
C      0.31789  0.83034  0.48702     C
C      0.32431  0.01707  0.72514     C
C      0.32431  0.48293  0.77486     C
C      0.32431  0.51707  0.22514     C
C      0.32431  0.98293  0.27486     C
C      0.32497  0.22693  0.51516     C
C      0.32497  0.27307  0.98484     C
C      0.32497  0.72693  0.01516     C
C      0.32497  0.77307  0.48484     C
H      0.32513  0.16016  0.98197     H
H      0.32513  0.33984  0.51803     H
H      0.32513  0.66016  0.48197     H
H      0.32513  0.83984  0.01803     H
H       0.3272  0.02016   0.8381     H
H       0.3272  0.47984   0.6619     H
H       0.3272  0.52016   0.3381     H
H       0.3272  0.97984   0.1619     H
O      0.35065  0.00025  0.57835     O
O      0.35065  0.49975  0.92165     O
O      0.35065  0.50025  0.07835     O
O      0.35065  0.99975  0.42165     O
O       0.3535  0.08033  0.50348     O
O       0.3535  0.41967  0.99652     O
O       0.3535  0.58033  0.00348     O
O       0.3535  0.91967  0.49652     O
C      0.36428  0.00625  0.62966     C
C      0.36428  0.49375  0.87034     C
C      0.36428  0.50625  0.12966     C
C      0.36428  0.99375  0.37034     C
C      0.36674  0.13172  0.50635     C
C      0.36674  0.36828  0.99365     C
C      0.36674  0.63172  0.00635     C
C      0.36674  0.86828  0.49365     C
H      0.36677   0.0157  0.74177     H
H      0.36677   0.4843  0.75823     H
H      0.36677   0.5157  0.24177     H
H      0.36677   0.9843  0.25823     H
H      0.36701  0.24462  0.51384     H
H      0.36701  0.25538  0.98616     H
H      0.36701  0.74462  0.01384     H
H      0.36701  0.75538  0.48616     H
Zr     0.39663     -0.0      0.5    Zr
Zr     0.39663      0.5      0.0    Zr
O      0.41382  0.00458  0.64905     O
O      0.41382  0.49542  0.85095     O
O      0.41382  0.50458  0.14905     O
O      0.41382  0.99542  0.35095     O
O      0.41632  0.15163  0.50281     O
O      0.41632  0.34837  0.99719     O
O      0.41632  0.65163  0.00281     O
O      0.41632  0.84837  0.49719     O
H      0.41716  0.08238  0.41732     H
H      0.41716  0.41762  0.08268     H
H      0.41716  0.58238  0.91732     H
H      0.41716  0.91762  0.58268     H
O      0.44156  0.06016  0.44073     O
O      0.44156  0.43984  0.05927     O
O      0.44156  0.56016  0.94073     O
O      0.44156  0.93984  0.55927     O
O      0.45742  0.04473  0.54374     O
O      0.45742  0.45527  0.95626     O
O      0.45742  0.54473  0.04374     O
O      0.45742  0.95527  0.45626     O
H      0.47656  0.16187  0.82715     H
H      0.47656  0.33813  0.67285     H
H      0.47656  0.66187  0.32715     H
H      0.47656  0.83813  0.17285     H
C      0.47752  0.23827  0.77777     C
C      0.47752  0.26173  0.72223     C
C      0.47752  0.73827  0.27777     C
C      0.47752  0.76173  0.22223     C
C      0.47764  0.17905  0.78483     C
C      0.47764  0.32095  0.71517     C
C      0.47764  0.67905  0.28483     C
C      0.47764  0.82095  0.21517     C
C      0.48038  0.22516  0.67568     C
C      0.48038  0.27484  0.82432     C
C      0.48038  0.72516  0.17568     C
C      0.48038  0.77484  0.32432     C
C      0.48093  0.14451  0.73896     C
C      0.48093  0.35549  0.76104     C
C      0.48093  0.64451  0.23896     C
C      0.48093  0.85549  0.26104     C
H      0.48208  0.24183  0.63324     H
H      0.48208  0.25817  0.86676     H
H      0.48208  0.74183  0.13324     H
H      0.48208  0.75817  0.36676     H
H      0.48256  0.09925  0.74332     H
H      0.48256  0.40075  0.75668     H
H      0.48256  0.59925  0.24332     H
H      0.48256  0.90075  0.25668     H
C      0.48357  0.16805  0.68407     C
C      0.48357  0.33195  0.81593     C
C      0.48357  0.66805  0.18407     C
C      0.48357  0.83195  0.31593     C
C      0.49275  0.12976  0.63587     C
C      0.49275  0.37024  0.86413     C
C      0.49275  0.62976  0.13587     C
C      0.49275  0.87024  0.36413     C
O       0.4952  0.14932  0.58636     O
O       0.4952  0.35068  0.91364     O
O       0.4952  0.64932  0.08636     O
O       0.4952  0.85068  0.41364     O
O      0.49896  0.07847   0.6499     O
O      0.49896  0.42153   0.8501     O
O      0.49896  0.57847   0.1499     O
O      0.49896  0.92153   0.3501     O
Zr         0.5     -0.0  0.39463    Zr
Zr         0.5     -0.0  0.60537    Zr
Zr         0.5  0.10718      0.5    Zr
Zr         0.5  0.39282      0.0    Zr
Zr         0.5      0.5  0.10537    Zr
Zr         0.5      0.5  0.89463    Zr
Zr         0.5  0.60718      0.0    Zr
Zr         0.5  0.89282      0.5    Zr
O      0.50104  0.07847   0.3501     O
O      0.50104  0.42153   0.1499     O
O      0.50104  0.57847   0.8501     O
O      0.50104  0.92153   0.6499     O
O       0.5048  0.14932  0.41364     O
O       0.5048  0.35068  0.08636     O
O       0.5048  0.64932  0.91364     O
O       0.5048  0.85068  0.58636     O
C      0.50725  0.12976  0.36413     C
C      0.50725  0.37024  0.13587     C
C      0.50725  0.62976  0.86413     C
C      0.50725  0.87024  0.63587     C
C      0.51643  0.16805  0.31593     C
C      0.51643  0.33195  0.18407     C
C      0.51643  0.66805  0.81593     C
C      0.51643  0.83195  0.68407     C
H      0.51744  0.09925  0.25668     H
H      0.51744  0.40075  0.24332     H
H      0.51744  0.59925  0.75668     H
H      0.51744  0.90075  0.74332     H
H      0.51792  0.24183  0.36676     H
H      0.51792  0.25817  0.13324     H
H      0.51792  0.74183  0.86676     H
H      0.51792  0.75817  0.63324     H
C      0.51907  0.14451  0.26104     C
C      0.51907  0.35549  0.23896     C
C      0.51907  0.64451  0.76104     C
C      0.51907  0.85549  0.73896     C
C      0.51962  0.22516  0.32432     C
C      0.51962  0.27484  0.17568     C
C      0.51962  0.72516  0.82432     C
C      0.51962  0.77484  0.67568     C
C      0.52236  0.17905  0.21517     C
C      0.52236  0.32095  0.28483     C
C      0.52236  0.67905  0.71517     C
C      0.52236  0.82095  0.78483     C
C      0.52248  0.23827  0.22223     C
C      0.52248  0.26173  0.27777     C
C      0.52248  0.73827  0.72223     C
C      0.52248  0.76173  0.77777     C
H      0.52344  0.16187  0.17285     H
H      0.52344  0.33813  0.32715     H
H      0.52344  0.66187  0.67285     H
H      0.52344  0.83813  0.82715     H
O      0.54258  0.04473  0.45626     O
O      0.54258  0.45527  0.04374     O
O      0.54258  0.54473  0.95626     O
O      0.54258  0.95527  0.54374     O
O      0.55844  0.06016  0.55927     O
O      0.55844  0.43984  0.94073     O
O      0.55844  0.56016  0.05927     O
O      0.55844  0.93984  0.44073     O
H      0.58284  0.08238  0.58268     H
H      0.58284  0.41762  0.91732     H
H      0.58284  0.58238  0.08268     H
H      0.58284  0.91762  0.41732     H
O      0.58368  0.15163  0.49719     O
O      0.58368  0.34837  0.00281     O
O      0.58368  0.65163  0.99719     O
O      0.58368  0.84837  0.50281     O
O      0.58618  0.00458  0.35095     O
O      0.58618  0.49542  0.14905     O
O      0.58618  0.50458  0.85095     O
O      0.58618  0.99542  0.64905     O
Zr     0.60337     -0.0      0.5    Zr
Zr     0.60337      0.5      0.0    Zr
H      0.63299  0.24462  0.48616     H
H      0.63299  0.25538  0.01384     H
H      0.63299  0.74462  0.98616     H
H      0.63299  0.75538  0.51384     H
H      0.63323   0.0157  0.25823     H
H      0.63323   0.4843  0.24177     H
H      0.63323   0.5157  0.75823     H
H      0.63323   0.9843  0.74177     H
C      0.63326  0.13172  0.49365     C
C      0.63326  0.36828  0.00635     C
C      0.63326  0.63172  0.99365     C
C      0.63326  0.86828  0.50635     C
C      0.63572  0.00625  0.37034     C
C      0.63572  0.49375  0.12966     C
C      0.63572  0.50625  0.87034     C
C      0.63572  0.99375  0.62966     C
O       0.6465  0.08033  0.49652     O
O       0.6465  0.41967  0.00348     O
O       0.6465  0.58033  0.99652     O
O       0.6465  0.91967  0.50348     O
O      0.64935  0.00025  0.42165     O
O      0.64935  0.49975  0.07835     O
O      0.64935  0.50025  0.92165     O
O      0.64935  0.99975  0.57835     O
H       0.6728  0.02016   0.1619     H
H       0.6728  0.47984   0.3381     H
H       0.6728  0.52016   0.6619     H
H       0.6728  0.97984   0.8381     H
H      0.67487  0.16016  0.01803     H
H      0.67487  0.33984  0.48197     H
H      0.67487  0.66016  0.51803     H
H      0.67487  0.83984  0.98197     H
C      0.67503  0.22693  0.48484     C
C      0.67503  0.27307  0.01516     C
C      0.67503  0.72693  0.98484     C
C      0.67503  0.77307  0.51516     C
C      0.67569  0.01707  0.27486     C
C      0.67569  0.48293  0.22514     C
C      0.67569  0.51707  0.77486     C
C      0.67569  0.98293  0.72514     C
C      0.68211  0.16966  0.48702     C
C      0.68211  0.33034  0.01298     C
C      0.68211  0.66966  0.98702     C
C      0.68211  0.83034  0.51298     C
C      0.68408  0.01421  0.33197     C
C      0.68408  0.48579  0.16803     C
C      0.68408  0.51421  0.83197     C
C      0.68408  0.98579  0.66803     C
C      0.71514  0.01929  0.17906     C
C      0.71514  0.48071  0.32094     C
C      0.71514  0.51929  0.67906     C
C      0.71514  0.98071  0.82094     C
C      0.71678  0.17833  0.01727     C
C      0.71678  0.32167  0.48273     C
C      0.71678  0.67833  0.51727     C
C      0.71678  0.82167  0.98273     C
C      0.72223  0.01953  0.23827     C
C      0.72223  0.48047  0.26173     C
C      0.72223  0.51953  0.73827     C
C      0.72223  0.98047  0.76173     C
C       0.7225  0.23764   0.0173     C
C       0.7225  0.26236   0.4827     C
C       0.7225  0.73764   0.5173     C
C       0.7225  0.76236   0.9827     C
C      0.73652  0.14492  0.48501     C
C      0.73652  0.35508  0.01499     C
C      0.73652  0.64492  0.98501     C
C      0.73652  0.85508  0.51499     C
C      0.73898  0.01634  0.35548     C
C      0.73898  0.48366  0.14452     C
C      0.73898  0.51634  0.85548     C
C      0.73898  0.98366  0.64452     C
H      0.73979  0.09958  0.48617     H
H      0.73979  0.40042  0.01383     H
H      0.73979  0.59958  0.98617     H
H      0.73979  0.90042  0.51383     H
H      0.74332  0.01467  0.40074     H
H      0.74332  0.48533  0.09926     H
H      0.74332  0.51467  0.90074     H
H      0.74332  0.98533  0.59926     H
H      0.75668  0.01467  0.09926     H
H      0.75668  0.48533  0.40074     H
H      0.75668  0.51467  0.59926     H
H      0.75668  0.98533  0.90074     H
H      0.76021  0.09958  0.01383     H
H      0.76021  0.40042  0.48617     H
H      0.76021  0.59958  0.51383     H
H      0.76021  0.90042  0.98617     H
C      0.76102  0.01634  0.14452     C
C      0.76102  0.48366  0.35548     C
C      0.76102  0.51634  0.64452     C
C      0.76102  0.98366  0.85548     C
C      0.76348  0.14492  0.01499     C
C      0.76348  0.35508  0.48501     C
C      0.76348  0.64492  0.51499     C
C      0.76348  0.85508  0.98501     C
C       0.7775  0.23764   0.4827     C
C       0.7775  0.26236   0.0173     C
C       0.7775  0.73764   0.9827     C
C       0.7775  0.76236   0.5173     C
C      0.77777  0.01953  0.26173     C
C      0.77777  0.48047  0.23827     C
C      0.77777  0.51953  0.76173     C
C      0.77777  0.98047  0.73827     C
C      0.78322  0.17833  0.48273     C
C      0.78322  0.32167  0.01727     C
C      0.78322  0.67833  0.98273     C
C      0.78322  0.82167  0.51727     C
C      0.78486  0.01929  0.32094     C
C      0.78486  0.48071  0.17906     C
C      0.78486  0.51929  0.82094     C
C      0.78486  0.98071  0.67906     C
C      0.81592  0.01421  0.16803     C
C      0.81592  0.48579  0.33197     C
C      0.81592  0.51421  0.66803     C
C      0.81592  0.98579  0.83197     C
C      0.81789  0.16966  0.01298     C
C      0.81789  0.33034  0.48702     C
C      0.81789  0.66966  0.51298     C
C      0.81789  0.83034  0.98702     C
C      0.82431  0.01707  0.22514     C
C      0.82431  0.48293  0.27486     C
C      0.82431  0.51707  0.72514     C
C      0.82431  0.98293  0.77486     C
C      0.82497  0.22693  0.01516     C
C      0.82497  0.27307  0.48484     C
C      0.82497  0.72693  0.51516     C
C      0.82497  0.77307  0.98484     C
H      0.82513  0.16016  0.48197     H
H      0.82513  0.33984  0.01803     H
H      0.82513  0.66016  0.98197     H
H      0.82513  0.83984  0.51803     H
H       0.8272  0.02016   0.3381     H
H       0.8272  0.47984   0.1619     H
H       0.8272  0.52016   0.8381     H
H       0.8272  0.97984   0.6619     H
O      0.85065  0.00025  0.07835     O
O      0.85065  0.49975  0.42165     O
O      0.85065  0.50025  0.57835     O
O      0.85065  0.99975  0.92165     O
O       0.8535  0.08033  0.00348     O
O       0.8535  0.41967  0.49652     O
O       0.8535  0.58033  0.50348     O
O       0.8535  0.91967  0.99652     O
C      0.86428  0.00625  0.12966     C
C      0.86428  0.49375  0.37034     C
C      0.86428  0.50625  0.62966     C
C      0.86428  0.99375  0.87034     C
C      0.86674  0.13172  0.00635     C
C      0.86674  0.36828  0.49365     C
C      0.86674  0.63172  0.50635     C
C      0.86674  0.86828  0.99365     C
H      0.86677   0.0157  0.24177     H
H      0.86677   0.4843  0.25823     H
H      0.86677   0.5157  0.74177     H
H      0.86677   0.9843  0.75823     H
H      0.86701  0.24462  0.01384     H
H      0.86701  0.25538  0.48616     H
H      0.86701  0.74462  0.51384     H
H      0.86701  0.75538  0.98616     H
Zr     0.89663     -0.0     -0.0    Zr
Zr     0.89663      0.5      0.5    Zr
O      0.91382  0.00458  0.14905     O
O      0.91382  0.49542  0.35095     O
O      0.91382  0.50458  0.64905     O
O      0.91382  0.99542  0.85095     O
O      0.91632  0.15163  0.00281     O
O      0.91632  0.34837  0.49719     O
O      0.91632  0.65163  0.50281     O
O      0.91632  0.84837  0.99719     O
H      0.91716  0.08238  0.91732     H
H      0.91716  0.41762  0.58268     H
H      0.91716  0.58238  0.41732     H
H      0.91716  0.91762  0.08268     H
O      0.94156  0.06016  0.94073     O
O      0.94156  0.43984  0.55927     O
O      0.94156  0.56016  0.44073     O
O      0.94156  0.93984  0.05927     O
O      0.95742  0.04473  0.04374     O
O      0.95742  0.45527  0.45626     O
O      0.95742  0.54473  0.54374     O
O      0.95742  0.95527  0.95626     O
H      0.97656  0.16187  0.32715     H
H      0.97656  0.33813  0.17285     H
H      0.97656  0.66187  0.82715     H
H      0.97656  0.83813  0.67285     H
C      0.97752  0.23827  0.27777     C
C      0.97752  0.26173  0.22223     C
C      0.97752  0.73827  0.77777     C
C      0.97752  0.76173  0.72223     C
C      0.97764  0.17905  0.28483     C
C      0.97764  0.32095  0.21517     C
C      0.97764  0.67905  0.78483     C
C      0.97764  0.82095  0.71517     C
C      0.98038  0.22516  0.17568     C
C      0.98038  0.27484  0.32432     C
C      0.98038  0.72516  0.67568     C
C      0.98038  0.77484  0.82432     C
C      0.98093  0.14451  0.23896     C
C      0.98093  0.35549  0.26104     C
C      0.98093  0.64451  0.73896     C
C      0.98093  0.85549  0.76104     C
H      0.98208  0.24183  0.13324     H
H      0.98208  0.25817  0.36676     H
H      0.98208  0.74183  0.63324     H
H      0.98208  0.75817  0.86676     H
H      0.98256  0.09925  0.24332     H
H      0.98256  0.40075  0.25668     H
H      0.98256  0.59925  0.74332     H
H      0.98256  0.90075  0.75668     H
C      0.98357  0.16805  0.18407     C
C      0.98357  0.33195  0.31593     C
C      0.98357  0.66805  0.68407     C
C      0.98357  0.83195  0.81593     C
C      0.99275  0.12976  0.13587     C
C      0.99275  0.37024  0.36413     C
C      0.99275  0.62976  0.63587     C
C      0.99275  0.87024  0.86413     C
O       0.9952  0.14932  0.08636     O
O       0.9952  0.35068  0.41364     O
O       0.9952  0.64932  0.58636     O
O       0.9952  0.85068  0.91364     O
O      0.99896  0.07847   0.1499     O
O      0.99896  0.42153   0.3501     O
O      0.99896  0.57847   0.6499     O
O      0.99896  0.92153   0.8501     O
