data_I
_chemical_name_common  '/home/zhangsd/repos/MofS-CGCNN/ML/data/WS24/clean_cifs/UiO-1,4-NDC'
_cell_length_a 20.80300
_cell_length_b 20.80300
_cell_length_c 20.80300
_cell_angle_alpha 90.00000
_cell_angle_beta  90.00000
_cell_angle_gamma 90.00000
_space_group_name_H-M_alt      'P 1'


loop_
_space_group_symop_operation_xyz
  'x, y, z' 

loop_
_atom_site_label
_atom_site_fract_x
_atom_site_fract_y
_atom_site_fract_z
_atom_site_type_symbol
Zr      0.0001   0.0001  0.11959    Zr
Zr      0.0001   0.0001  0.88061    Zr
Zr      0.0001  0.11959   0.0001    Zr
C       0.0001  0.20031  0.20202     C
Zr      0.0001  0.38052      0.5    Zr
Zr      0.0001  0.50001  0.38051    Zr
Zr      0.0001  0.50001  0.61949    Zr
Zr      0.0001   0.6195      0.5    Zr
Zr      0.0001  0.88061   0.0001    Zr
O      0.00268  0.09354  0.17065     O
O      0.00268  0.17065  0.09354     O
O      0.00268  0.32946  0.59344     O
O      0.00268  0.40657  0.67055     O
O      0.00268  0.59345  0.32945     O
O      0.00268  0.67056  0.40656     O
O      0.00268  0.82955  0.90666     O
O      0.00268  0.90666  0.82955     O
C      0.00275  0.29633  0.69864     C
C      0.00402  0.70351  0.30102     C
C      0.00414   0.1521   0.1521     C
C      0.00414  0.34801    0.652     C
C      0.00414    0.652  0.34801     C
C      0.00414   0.8481   0.8481     C
C      0.00518  0.79655  0.80117     C
C       0.0055  0.18109  0.73026     C
C       0.0057  0.73659  0.18834     C
C       0.0064  0.68124  0.76973     C
C      0.00816  0.23015  0.68129     C
H      0.00843  0.72127   0.1386     H
C      0.00861  0.68939  0.23507     C
H      0.00982  0.07554  0.74183     H
H      0.00992  0.57564  0.75825     H
C      0.01064  0.73037  0.81851     C
C       0.0112  0.11601  0.71015     C
C      0.01213  0.61615  0.78983     C
H      0.01322  0.24431  0.57682     H
H      0.01363  0.64114  0.21716     H
C      0.01398    0.211  0.61621     C
C      0.01824  0.09957  0.64574     C
C       0.0192  0.14674    0.599     C
H      0.02213  0.04953  0.63191     H
C      0.02228  0.59986  0.85387     C
C       0.0224  0.71152  0.88287     C
H      0.02359  0.13344  0.54887     H
H      0.02677  0.54986  0.86762     H
C      0.02781  0.64727  0.90005     C
H      0.02922  0.74521  0.92134     H
H      0.03683   0.6342  0.94962     H
C      0.03856  0.30014  0.24907     C
C      0.04138  0.25328  0.20199     C
H      0.04864  0.46383  0.13732     H
O      0.05039  0.05039  0.05039     O
O      0.05039  0.44972  0.55029     O
O      0.05039   0.5503  0.44971     O
O      0.05039  0.94981  0.94981     O
O      0.06724  0.06724  0.93296     O
O      0.06724  0.43287  0.43287     O
O      0.06724  0.56714  0.56714     O
O      0.06724  0.93296  0.06724     O
H      0.07369  0.33783  0.24456     H
H      0.07754  0.47969   0.2473     H
H      0.07815  0.25825   0.1654     H
O      0.09354  0.00268  0.17065     O
O      0.09354  0.17065  0.00268     O
O      0.09354  0.32946  0.50258     O
O      0.09354  0.49743  0.67055     O
O      0.09354  0.50258  0.32945     O
O      0.09354  0.67056  0.49743     O
O      0.09354  0.82955  0.99752     O
O      0.09354  0.99752  0.82955     O
H      0.09426  0.09426  0.90594     H
H      0.09426  0.40585  0.40585     H
H      0.09426  0.59416  0.59416     H
H      0.09426  0.90594  0.09426     H
C      0.09865  0.47132  0.14966     C
C      0.11624  0.48146  0.21322     C
Zr     0.11959   0.0001   0.0001    Zr
Zr     0.11959  0.50001      0.5    Zr
H      0.13085  0.46205  0.05261     H
H      0.13856  0.22032  0.50318     H
H      0.14303  0.37357   0.6976     H
C      0.14495  0.47019  0.10206     C
H      0.14784    0.678  0.62232     H
H      0.14959  0.11951  0.81779     H
C       0.1521  0.00414   0.1521     C
C       0.1521   0.1521  0.00414     C
C       0.1521  0.34801  0.50404     C
C       0.1521  0.49597    0.652     C
C       0.1521  0.50404  0.34801     C
C       0.1521    0.652  0.49596     C
C       0.1521   0.8481  0.99606     C
C       0.1521  0.99606   0.8481     C
H       0.1562  0.13436  0.17839     H
H       0.1562  0.82161  0.12409     H
H      0.16342  0.17117  0.87527     H
O      0.17065  0.00268  0.09354     O
O      0.17065  0.09354  0.00268     O
O      0.17065  0.40657  0.50258     O
O      0.17065  0.49743  0.59344     O
O      0.17065  0.50258  0.40656     O
O      0.17065  0.59345  0.49743     O
O      0.17065  0.90666  0.99752     O
O      0.17065  0.99752  0.90666     O
H       0.1713  0.28019  0.75812     H
H      0.17716  0.72649  0.72081     H
C      0.18118  0.49141  0.23112     C
C      0.18245  0.37894  0.73044     C
H      0.18319  0.21801   0.7693     H
C      0.18511  0.71323  0.61873     C
C      0.18821  0.23593  0.50058     C
H      0.18873  0.22993  0.23054     H
H      0.18873  0.76946  0.21967     H
C      0.18888  0.11613  0.78453     C
C      0.19253  0.12804  0.21423     C
C      0.19253  0.78577  0.11778     C
C      0.19765  0.32442  0.76578     C
C      0.19895  0.50175   0.2966     C
C      0.19939  0.20736  0.88159     C
C      0.19996  0.49352  0.70273     C
C      0.20007  0.99823  0.79782     C
C      0.20042  0.00814  0.20191     C
C      0.20042  0.79809  0.99787     C
C      0.20058  0.20175  0.00225     C
C      0.20125  0.70108  0.49963     C
H      0.20129  0.21798   0.7789     H
C      0.20172  0.74094  0.67725     C
C      0.20363  0.30126   0.5021     C
C      0.20719  0.17371  0.75621     C
C      0.20947  0.47833  0.11754     C
C      0.21075  0.18484  0.24441     C
C      0.21075  0.75559  0.17458     C
H      0.21236  0.21076  0.10615     H
H      0.21508  0.89547  0.79706     H
C      0.21589  0.43761   0.7392     C
C      0.21648  0.73056  0.56051     C
H      0.21716  0.14022  0.49811     H
H      0.21797  0.79485  0.89445     H
H      0.21797  0.90471  0.20514     H
C       0.2192  0.05729  0.76855     C
C      0.21995  0.06781  0.23132     C
C      0.21995  0.76868  0.05754     C
H      0.22047  0.59464  0.69086     H
C      0.22079  0.23437  0.82431     C
C      0.22345  0.22782  0.94222     C
C      0.22653  0.22724  0.05923     C
C      0.22852  0.94134  0.77632     C
H      0.22893  0.70138   0.3984     H
C      0.22954  0.77577   0.9411     C
C      0.22954  0.95136  0.22423     C
C         0.23   0.4887  0.18191     C
C      0.23143  0.55104  0.71721     C
C      0.23498  0.18876   0.4977     C
C      0.23694  0.72072  0.44568     C
H      0.24103  0.47528  0.07707     H
C      0.24604   0.3266  0.81121     C
C      0.25028  0.78615  0.68036     C
H      0.25476  0.42357  0.49301     H
C      0.25569  0.17458  0.71085     C
C      0.25611  0.18398  0.29291     C
C      0.25611  0.70709  0.17371     C
H      0.25747  0.28391  0.83873     H
H      0.26365  0.80666  0.72629     H
C      0.26425   0.5063  0.31156     C
C       0.2654  0.44073  0.78768     C
C      0.26603  0.77897  0.56395     C
C      0.26611  0.28291  0.82499     C
H      0.26824  0.29002  0.20919     H
C      0.26845  0.71909  0.05729     C
C      0.26846  0.06755   0.2809     C
C      0.26878  0.05754  0.72005     C
H       0.2692  0.22827  0.31691     H
H       0.2692  0.68309  0.21801     H
H      0.26935  0.20352  0.28953     H
H      0.26956  0.21967  0.68883     H
C      0.26975  0.31921  0.49807     C
C      0.27194  0.27742  0.94241     C
C      0.27323  0.27457  0.05895     C
C      0.27587   0.9411  0.72964     C
C      0.27622  0.72842  0.94134     C
C      0.27622   0.9516  0.27158     C
C      0.27873  0.55454  0.76381     C
C      0.27924  0.38353  0.82246     C
H      0.27974   0.5138  0.36074     H
H      0.28168  0.30443  0.78023     H
C      0.28224   0.8048  0.62483     C
C      0.28415  0.76739  0.44937     C
C      0.28443   0.1264  0.31122     C
C      0.28443  0.68878  0.11613     C
C      0.28587  0.11778  0.69263     C
C      0.28851  0.38457  0.49441     C
C      0.29121  0.30444  0.88295     C
H      0.29141  0.29057  0.10509     H
H      0.29496  0.89445  0.71807     H
C       0.2968  0.49542  0.19923     C
H      0.29696  0.71498  0.89547     H
H      0.29696  0.90573  0.28502     H
C      0.29772   0.0085  0.30003     C
C      0.29772  0.69997  0.99823     C
C      0.29791  0.29984  0.00185     C
C      0.29797   0.5007  0.79987     C
C      0.29819  0.99787  0.70052     C
C      0.29914  0.79833  0.50704     C
H       0.3003  0.60118  0.76963     H
C      0.30095  0.20337  0.49573     C
H      0.30845  0.78044  0.40516     H
C      0.31138  0.50345  0.26475     C
C      0.31369  0.27204   0.2271     C
C      0.31426  0.22348   0.2724     C
H      0.31469  0.37986  0.85952     H
H      0.31769  0.12977  0.35051     H
H      0.31769  0.64949  0.11951     H
C       0.3189  0.27033  0.49539     C
H      0.32053  0.83866  0.63183     H
H      0.32171  0.12409   0.6563     H
H      0.32467  0.34353  0.87925     H
O      0.32945  0.00268  0.40656     O
O      0.32945  0.09354  0.49742     O
O      0.32945  0.40656  0.00268     O
O      0.32945  0.49742  0.09354     O
O      0.32945  0.50257  0.90666     O
O      0.32945  0.59344  0.99752     O
O      0.32945  0.90666  0.50258     O
O      0.32945  0.99752  0.59344     O
H      0.33009  0.89216  0.18867     H
H       0.3337  0.81062  0.10337     H
C        0.348  0.00414    0.348     C
C        0.348   0.1521  0.49596     C
C        0.348    0.348  0.00414     C
C        0.348  0.49596   0.1521     C
C        0.348  0.50404   0.8481     C
C        0.348  0.65199  0.99606     C
C        0.348   0.8481  0.50404     C
C        0.348  0.99606    0.652     C
C       0.3527  0.40235  0.49043     C
H       0.3598  0.50883  0.28209     H
H       0.3648  0.33346  0.16795     H
C       0.3653  0.85389  0.19105     C
H      0.36569  0.45268  0.48767     H
C      0.36721  0.80796  0.14311     C
H      0.36838  0.16097  0.32907     H
C       0.3711  0.29705   0.2037     C
C      0.37228  0.19993  0.29548     C
Zr     0.38051   0.0001      0.5    Zr
Zr     0.38051      0.5   0.0001    Zr
C      0.38392  0.29106  0.49146     C
C      0.40013  0.35588  0.48939     C
H      0.40267  0.64758  0.56137     H
H      0.40385  0.89042  0.27509     H
H      0.40584  0.09426  0.59415     H
H      0.40584  0.40584  0.90594     H
H      0.40584  0.59415  0.09426     H
H      0.40584  0.90594  0.40584     H
H      0.40624  0.56224  0.64287     H
O      0.40656  0.00268  0.32945     O
O      0.40656  0.17065  0.49742     O
O      0.40656  0.32945  0.00268     O
O      0.40656  0.49742  0.17065     O
O      0.40656  0.50257  0.82955     O
O      0.40656  0.67055  0.99752     O
O      0.40656  0.82955  0.50258     O
O      0.40656  0.99752  0.67055     O
C      0.40903  0.85177  0.24157     C
H      0.41172  0.72641  0.10549     H
C      0.41233  0.75887  0.14558     C
C      0.42196  0.65775  0.60863     C
C      0.42386  0.60982  0.65456     C
H      0.42443  0.25949  0.48908     H
C      0.43178  0.27448  0.22565     C
C      0.43193  0.22487  0.27413     C
O      0.43286  0.06724  0.56714     O
O      0.43286  0.43286  0.93296     O
O      0.43286  0.56713  0.06724     O
O      0.43286  0.93296  0.43286     O
H      0.43917  0.75374  0.58544     H
H      0.44047  0.15676  0.76645     H
H      0.44074  0.23701  0.84506     H
C      0.44418  0.71896  0.62321     C
H      0.44519  0.58239   0.7477     H
C      0.44721  0.62271  0.71585     C
O      0.44971  0.05039  0.44971     O
O      0.44971  0.44971  0.05039     O
O      0.44971  0.55029  0.94981     O
O      0.44971  0.94981  0.55029     O
H      0.45009  0.37014  0.48606     H
C      0.45628  0.80259  0.24623     C
C       0.4569  0.75391  0.19682     C
C      0.46953  0.24544  0.80245     C
C      0.46969  0.19807  0.75579     C
C       0.4697  0.73398  0.68453     C
C      0.47038  0.68462  0.73325     C
C      0.49142  0.20038  0.29803     C
C      0.49185  0.29845  0.20068     C
C      0.49243  0.79706  0.69921     C
C      0.49307  0.69948  0.79706     C
C      0.49596   0.1521    0.348     C
C      0.49596    0.348   0.1521     C
C      0.49596  0.65199   0.8481     C
C      0.49596   0.8481    0.652     C
O      0.49742  0.09354  0.32945     O
O      0.49742  0.17065  0.40656     O
O      0.49742  0.32945  0.09354     O
O      0.49742  0.40656  0.17065     O
O      0.49742  0.59344  0.82955     O
O      0.49742  0.67055  0.90666     O
O      0.49742  0.82955  0.59344     O
O      0.49742  0.90666  0.67055     O
Zr         0.5   0.0001  0.38051    Zr
Zr         0.5   0.0001  0.61949    Zr
Zr         0.5  0.11959      0.5    Zr
Zr         0.5  0.38051   0.0001    Zr
Zr         0.5      0.5  0.11959    Zr
Zr         0.5      0.5  0.88061    Zr
Zr         0.5  0.61949   0.0001    Zr
Zr         0.5  0.88061      0.5    Zr
O      0.50258  0.09354  0.67055     O
O      0.50258  0.17065  0.59344     O
O      0.50258  0.32945  0.90666     O
O      0.50258  0.40656  0.82955     O
O      0.50258  0.59344  0.17065     O
O      0.50258  0.67055  0.09354     O
O      0.50258  0.82955  0.40656     O
O      0.50258  0.90666  0.32945     O
C      0.50322  0.70332  0.19903     C
C      0.50322  0.80056  0.29721     C
C      0.50404   0.1521    0.652     C
C      0.50404    0.348   0.8481     C
C      0.50404  0.65199   0.1521     C
C      0.50404   0.8481    0.348     C
C      0.50629  0.30132  0.79653     C
C      0.50644  0.20315  0.69928     C
C      0.51239  0.80991  0.76202     C
C       0.5129  0.76298  0.80911     C
H      0.52964  0.85728  0.77521     H
H      0.53051  0.77842  0.85521     H
C      0.54298  0.31024  0.73922     C
C       0.5437  0.26094  0.69043     C
H      0.54784  0.02131  0.86604     H
C      0.54848  0.22366  0.27136     C
C      0.54878  0.27098  0.22465     C
C      0.54886  0.75071  0.29562     C
C      0.54891  0.70407  0.24823     C
O      0.55029  0.05039  0.55029     O
O      0.55029  0.44971  0.94981     O
O      0.55029  0.55029  0.05039     O
O      0.55029  0.94981  0.44971     O
O      0.56714  0.06724  0.43286     O
O      0.56714  0.43286  0.06724     O
O      0.56714  0.56713  0.93296     O
O      0.56714  0.93296  0.56714     O
H      0.57679  0.40797  0.76033     H
H      0.57682  0.01857  0.75498     H
C      0.57741  0.36788  0.72787     C
C      0.58112  0.27245   0.6344     C
H       0.5851  0.66672   0.2514     H
H      0.58535   0.2397  0.59499     H
H      0.58563   0.7454  0.33158     H
O      0.59344  0.00268  0.67055     O
O      0.59344  0.17065  0.50258     O
O      0.59344  0.32945  0.99752     O
O      0.59344  0.49742  0.82955     O
O      0.59344  0.50257  0.17065     O
O      0.59344  0.67055  0.00268     O
O      0.59344  0.82955  0.49742     O
O      0.59344  0.99752  0.32945     O
H      0.59416  0.09426  0.40584     H
H      0.59416  0.40584  0.09426     H
H      0.59416  0.59415  0.90594     H
H      0.59416  0.90594  0.59415     H
H      0.59463  0.20605  0.28793     H
H      0.59572  0.28583  0.20884     H
C      0.59804  0.01711  0.85294     C
C      0.61313  0.37689  0.67223     C
C      0.61531  0.32928  0.62598     C
C      0.61571  0.01459  0.78864     C
Zr     0.61949   0.0001      0.5    Zr
Zr     0.61949      0.5   0.0001    Zr
H      0.63033  0.01703   0.9504     H
H       0.6384  0.22038  0.99556     H
H      0.63894  0.48932  0.72037     H
H      0.63899  0.42144  0.66477     H
H      0.64026  0.71721  0.50092     H
H      0.64141   0.7819  0.98742     H
H      0.64311  0.33677  0.58261     H
H       0.6434  0.38206  0.17995     H
C      0.64449  0.01483  0.90035     C
C        0.652  0.00414    0.652     C
C        0.652   0.1521  0.50404     C
C        0.652    0.348  0.99606     C
C        0.652  0.49596   0.8481     C
C        0.652  0.50404   0.1521     C
C        0.652  0.65199  0.00414     C
C        0.652   0.8481  0.49596     C
C        0.652  0.99606    0.348     C
H      0.66913  0.15406  0.37987     H
O      0.67055  0.00268  0.59344     O
O      0.67055  0.09354  0.50258     O
O      0.67055  0.40656  0.99752     O
O      0.67055  0.49742  0.90666     O
O      0.67055  0.50257  0.09354     O
O      0.67055  0.59344  0.00268     O
O      0.67055  0.90666  0.49742     O
O      0.67055  0.99752  0.40656     O
H      0.67204  0.28103  0.22636     H
H      0.68082  0.86629  0.34623     H
C       0.6809   0.0091  0.76974     C
C      0.68281  0.38278  0.21324     C
C      0.68812  0.23591  0.99402     C
C       0.6883  0.49538  0.73593     C
C      0.68878  0.73507  0.50142     C
C      0.68955  0.76442  0.99462     C
C      0.69822  0.32379  0.24034     C
C      0.69873   0.0066  0.70352     C
H      0.69906  0.09431  0.27595     H
C      0.69987  0.50023  0.20237     C
C      0.70109  0.99189  0.29876     C
C      0.70198  0.20025  0.50005     C
C      0.70274  0.19319  0.38108     C
C      0.70343  0.80093  0.49723     C
C      0.70344  0.69908  0.00498     C
C      0.70345  0.49815  0.80129     C
C      0.70352  0.30127   0.9936     C
H      0.70712  0.19107  0.27804     H
C       0.7092  0.01087  0.88405     C
H      0.71364  0.21165  0.60262     H
C      0.71596  0.87247   0.3092     C
C      0.71602  0.43969  0.23039     C
H      0.71708  0.14019   0.9961     H
H      0.71758  0.49432  0.64029     H
C      0.71948  0.04792  0.26571     C
H      0.71999  0.60208  0.20524     H
H      0.72034  0.63866  0.50703     H
H      0.72165  0.86052  0.98709     H
C       0.7249  0.21349  0.32151     C
C      0.72495  0.22141  0.43893     C
C      0.72948  0.22668  0.55531     C
C      0.72981  0.00832  0.81892     C
C      0.73113  0.55517  0.22502     C
H      0.73155  0.77044  0.31228     H
C      0.73194  0.93249  0.28067     C
C      0.73493   0.1887  0.99447     C
C       0.7351  0.49824  0.68879     C
C      0.73593  0.68835  0.50517     C
C      0.73681  0.81118  0.99423     C
H      0.74081  0.01071   0.9246     H
C        0.745  0.81545  0.28984     C
C      0.74662  0.31956  0.28563     C
H      0.75338  0.51642  0.92306     H
H      0.75498  0.42318  0.98163     H
H      0.75822  0.27339  0.30669     H
H      0.75839   0.5764  0.02421     H
H       0.7595  0.92456  0.49348     H
C      0.76409  0.00618  0.68812     C
C      0.76554  0.43596  0.27883     C
C      0.76622  0.04756  0.21842     C
C      0.76916  0.50664  0.81916     C
C      0.76974   0.3191   0.9911     C
C      0.76991  0.68156  0.01401     C
C      0.77013  0.26196  0.31756     C
C      0.77037  0.81895  0.49838     C
C      0.77337  0.27095  0.43529     C
C      0.77614  0.27395  0.55228     C
H      0.77826  0.09317  0.19628     H
C      0.77842  0.55208  0.27165     C
C       0.7796  0.37439  0.30499     C
H      0.77962  0.00464   0.6384     H
C      0.78042  0.93253  0.23106     C
H      0.78734  0.27739  0.27091     H
C      0.78736  0.51475  0.88427     C
C      0.78864  0.38429  0.98561     C
C       0.7901  0.61685  0.02288     C
C      0.79026   0.8157  0.24124     C
C      0.79106  0.88408  0.49649     C
H      0.79264  0.29139  0.59808     H
C      0.79437  0.29012  0.37313     C
C      0.79673  0.00606  0.80094     C
C      0.79788  0.49367  0.29956     C
C      0.79847  0.99139  0.20072     C
C      0.79921  0.29823  0.49356     C
H      0.79982  0.59747  0.28416     H
C       0.8008  0.50449  0.70342     C
C      0.80094  0.20327  0.99414     C
C      0.80131  0.70367  0.50466     C
C      0.80151  0.79644  0.00452     C
C      0.80764   0.8731  0.21199     C
C       0.8113  0.00573  0.73493     C
H      0.81181  0.77094   0.2257     H
H      0.81508  0.36555  0.34113     H
C      0.81835  0.50934  0.77032     C
C      0.81892  0.27019  0.99188     C
C      0.81893  0.73063  0.01321     C
C      0.81922  0.76989  0.50264     C
H         0.82  0.18448  0.38382     H
H      0.82406  0.10399  0.29755     H
O      0.82955  0.00268  0.90666     O
O      0.82955  0.09354  0.99752     O
O      0.82955  0.40657  0.49743     O
O      0.82955  0.49743  0.40656     O
O      0.82955  0.50258  0.59344     O
O      0.82955  0.59345  0.50258     O
O      0.82955  0.90666  0.00268     O
O      0.82955  0.99752  0.09354     O
H      0.82998  0.32614  0.36427     H
H      0.84164  0.86872  0.17344     H
C       0.8481  0.00414   0.8481     C
C       0.8481   0.1521  0.99606     C
C       0.8481  0.34801  0.49596     C
C       0.8481  0.49597  0.34801     C
C       0.8481  0.50404    0.652     C
C       0.8481    0.652  0.50404     C
C       0.8481   0.8481  0.00414     C
C       0.8481  0.99606   0.1521     C
C      0.85115  0.52309  0.90197     C
C      0.85294  0.40196  0.98309     C
C      0.85462  0.60074  0.02973     C
C      0.85578  0.90055  0.49945     C
C      0.85672  0.18789  0.34707     C
C      0.85904  0.14251  0.29863     C
H       0.8598   0.0041  0.71708     H
H      0.86372  0.52919  0.95211     H
H      0.86604  0.45216  0.97889     H
H       0.8685  0.55097  0.03608     H
H         0.87  0.95061  0.49823     H
Zr     0.88061   0.0001   0.0001    Zr
Zr     0.88061  0.50001      0.5    Zr
C      0.88296  0.51782  0.79096     C
C      0.88405   0.2908  0.98933     C
C       0.8841  0.71175  0.01897     C
C      0.88442  0.78905  0.50694     C
H      0.89334  0.27122  0.38705     H
C       0.8987  0.52419  0.85562     C
C      0.90035  0.35551  0.98537     C
C      0.90051  0.23838  0.34814     C
C      0.90137  0.64785  0.02736     C
C      0.90216  0.85335  0.50507     C
H      0.90291  0.11057  0.21435     H
C      0.90575  0.14661  0.25115     C
H      0.90594  0.09426  0.09426     H
H      0.90594  0.40585  0.59416     H
H      0.90594  0.59416  0.40585     H
H      0.90594  0.90594  0.90594     H
O      0.90666  0.00268  0.82955     O
O      0.90666  0.17065  0.99752     O
O      0.90666  0.32946  0.49743     O
O      0.90666  0.49743  0.32945     O
O      0.90666  0.50258  0.67055     O
O      0.90666  0.67056  0.50258     O
O      0.90666  0.82955  0.00268     O
O      0.90666  0.99752  0.17065     O
H      0.92326   0.7557   0.5133     H
H      0.92345  0.52068   0.7594     H
H      0.92347  0.74493  0.01575     H
H       0.9246  0.25919  0.98949     H
O      0.93296  0.06724  0.06724     O
O      0.93296  0.43287  0.56714     O
O      0.93296  0.56714  0.43287     O
O      0.93296  0.93296  0.93296     O
H      0.94834  0.53092   0.8698     H
C      0.94916  0.24484  0.30055     C
O      0.94981  0.05039  0.94981     O
O      0.94981  0.44972  0.44971     O
O      0.94981   0.5503  0.55029     O
O      0.94981  0.94981  0.05039     O
H       0.9504  0.36967  0.98317     H
H      0.95157  0.63474  0.03162     H
C      0.95225  0.19635  0.25105     C
H      0.95237  0.86666  0.50846     H
H      0.98222   0.2827  0.85841     H
H       0.9864  0.95206   0.3668     H
H      0.98747  0.36124  0.77827     H
H      0.98789  0.86916  0.45084     H
H      0.98833  0.78311  0.64095     H
C      0.98883  0.90179   0.3535     C
C      0.98926  0.26487  0.81039     C
C      0.98981  0.85513  0.40075     C
C      0.99154  0.88432  0.28916     C
C      0.99219  0.31159  0.76317     C
H      0.99249  0.92361  0.25573     H
C      0.99387  0.29782  0.29973     C
C      0.99436  0.79051  0.38427     C
H      0.99457   0.8617  0.72098     H
C      0.99472  0.76524  0.68906     C
C      0.99477  0.81906  0.27001     C
H      0.99601  0.75886  0.42476     H
C      0.99606   0.1521   0.8481     C
C      0.99606  0.34801  0.34801     C
C      0.99606    0.652    0.652     C
C      0.99606   0.8481   0.1521     C
C      0.99632  0.19907  0.79659     C
C      0.99743  0.77012  0.31909     C
O      0.99752  0.09354  0.82955     O
O      0.99752  0.17065  0.90666     O
O      0.99752  0.32946  0.40656     O
O      0.99752  0.40657  0.32945     O
O      0.99752  0.59345  0.67055     O
O      0.99752  0.67056  0.59344     O
O      0.99752  0.82955  0.09354     O
O      0.99752  0.90666  0.17065     O
C       0.9976  0.80144  0.20374     C
C      0.99771  0.69924  0.70334     C
C      0.99851  0.81201  0.73616     C
