data_I
_chemical_name_common  '/home/zhangsd/repos/MofS-CGCNN/ML/data/WS24/clean_cifs/UiO-67'
_cell_length_a 18.93165
_cell_length_b 18.93165
_cell_length_c 18.93165
_cell_angle_alpha 60.00000
_cell_angle_beta  60.00000
_cell_angle_gamma 60.00000
_space_group_name_H-M_alt      'P 1'


loop_
_space_group_symop_operation_xyz
  'x, y, z' 

loop_
_atom_site_label
_atom_site_fract_x
_atom_site_fract_y
_atom_site_fract_z
_atom_site_type_symbol
O      -0.2048   0.9396   0.0604     O
O      -0.2048   0.9396   0.2048     O
O       -0.141    1.047    0.047     O
H       -0.135   0.3474   0.7074     H
H       -0.135   0.3474   1.0802     H
H       -0.135   0.7074   0.3474     H
H       -0.135   0.7074   1.0802     H
H      -0.1349   0.4795   0.5753     H
H      -0.1349   0.4795   1.0801     H
H      -0.1349   0.5753   0.4795     H
H      -0.1349   0.5753   1.0801     H
Zr    -0.09165  0.09165  0.90835    Zr
Zr    -0.09165  0.09165  1.09165    Zr
Zr    -0.09165  0.90835  0.09165    Zr
Zr    -0.09165  0.90835  1.09165    Zr
Zr    -0.09165  1.09165 -0.09165    Zr
Zr    -0.09165  1.09165  0.09165    Zr
Zr    -0.09165  1.09165  0.90835    Zr
C     -0.07616  0.43876  0.59224     C
C     -0.07616  0.43876  1.04516     C
C     -0.07616  0.59224  0.43876     C
C     -0.07616  0.59224  1.04516     C
C     -0.07613  0.36433  0.66667     C
C     -0.07613  0.36433  1.04513     C
C     -0.07613  0.66667  0.36433     C
C     -0.07613  0.66667  1.04513     C
O      -0.0604   0.2048   0.7952     O
O      -0.0604   0.2048   1.0604     O
O      -0.0604   0.7952   0.0604     O
O      -0.0604   0.7952   0.2048     O
O       -0.047    0.141    0.953     O
O       -0.047    0.953   -0.047     O
O       -0.047    0.953    0.141     O
C          0.0   0.2302   0.7698     C
C          0.0   0.2302      1.0     C
C          0.0   0.3116   0.6884     C
C          0.0   0.3116      1.0     C
C          0.0   0.4605   0.5395     C
C          0.0   0.4605      1.0     C
C          0.0   0.5395   0.4605     C
C          0.0   0.5395      1.0     C
C          0.0   0.6884   0.3116     C
C          0.0   0.6884      1.0     C
C          0.0   0.7698   0.2302     C
C          0.0   0.7698      1.0     C
O        0.047    0.047    0.859     O
O        0.047    0.047    1.047     O
O        0.047    0.859    0.047     O
O       0.0604   0.2048   0.7952     O
O       0.0604   0.2048   0.9396     O
O       0.0604   0.7952   0.2048     O
O       0.0604   0.7952   0.9396     O
O       0.0604   0.9396   0.2048     O
O       0.0604   0.9396   0.7952     O
C      0.07613  0.33333  0.63567     C
C      0.07613  0.33333  0.95487     C
C      0.07613  0.63567  0.33333     C
C      0.07613  0.63567  0.95487     C
C      0.07616  0.40776  0.56124     C
C      0.07616  0.40776  0.95484     C
C      0.07616  0.56124  0.40776     C
C      0.07616  0.56124  0.95484     C
Zr     0.09165 -0.09165  0.90835    Zr
Zr     0.09165 -0.09165  1.09165    Zr
Zr     0.09165  0.09165  0.90835    Zr
Zr     0.09165  0.90835 -0.09165    Zr
Zr     0.09165  0.90835  0.09165    Zr
Zr     0.09165  0.90835  0.90835    Zr
Zr     0.09165  0.90835  1.09165    Zr
Zr     0.09165  1.09165 -0.09165    Zr
Zr     0.09165  1.09165  0.90835    Zr
H       0.1349   0.4247   0.5205     H
H       0.1349   0.4247   0.9199     H
H       0.1349   0.5205   0.4247     H
H       0.1349   0.5205   0.9199     H
H        0.135   0.2926   0.6526     H
H        0.135   0.2926   0.9198     H
H        0.135   0.6526   0.2926     H
H        0.135   0.6526   0.9198     H
O        0.141   -0.047    0.953     O
O       0.2048  -0.0604   0.7952     O
O       0.2048  -0.0604   1.0604     O
O       0.2048   0.0604   0.7952     O
O       0.2048   0.0604   0.9396     O
O       0.2048   0.7952  -0.0604     O
O       0.2048   0.7952   0.0604     O
C       0.2302      0.0   0.7698     C
C       0.2302      0.0      1.0     C
C       0.2302   0.7698      0.0     C
H       0.2926    0.135   0.6526     H
H       0.2926    0.135   0.9198     H
H       0.2926   0.6526    0.135     H
C       0.3116      0.0   0.6884     C
C       0.3116      0.0      1.0     C
C       0.3116   0.6884      0.0     C
C      0.33333  0.07613  0.63567     C
C      0.33333  0.07613  0.95487     C
C      0.33333  0.63567  0.07613     C
H       0.3474   -0.135   0.7074     H
H       0.3474   -0.135   1.0802     H
H       0.3474   0.7074   -0.135     H
C      0.36433 -0.07613  0.66667     C
C      0.36433 -0.07613  1.04513     C
C      0.36433  0.66667 -0.07613     C
C      0.40776  0.07616  0.56124     C
C      0.40776  0.07616  0.95484     C
C      0.40776  0.56124  0.07616     C
H       0.4247   0.1349   0.5205     H
H       0.4247   0.1349   0.9199     H
H       0.4247   0.5205   0.1349     H
C      0.43876 -0.07616  0.59224     C
C      0.43876 -0.07616  1.04516     C
C      0.43876  0.59224 -0.07616     C
C       0.4605      0.0   0.5395     C
C       0.4605      0.0      1.0     C
C       0.4605   0.5395      0.0     C
H       0.4795  -0.1349   0.5753     H
H       0.4795  -0.1349   1.0801     H
H       0.4795   0.5753  -0.1349     H
H       0.5205   0.1349   0.4247     H
H       0.5205   0.1349   0.9199     H
H       0.5205   0.4247   0.1349     H
C       0.5395      0.0   0.4605     C
C       0.5395      0.0      1.0     C
C       0.5395   0.4605      0.0     C
C      0.56124  0.07616  0.40776     C
C      0.56124  0.07616  0.95484     C
C      0.56124  0.40776  0.07616     C
H       0.5753  -0.1349   0.4795     H
H       0.5753  -0.1349   1.0801     H
H       0.5753   0.4795  -0.1349     H
C      0.59224 -0.07616  0.43876     C
C      0.59224 -0.07616  1.04516     C
C      0.59224  0.43876 -0.07616     C
C      0.63567  0.07613  0.33333     C
C      0.63567  0.07613  0.95487     C
C      0.63567  0.33333  0.07613     C
H       0.6526    0.135   0.2926     H
H       0.6526    0.135   0.9198     H
H       0.6526   0.2926    0.135     H
C      0.66667 -0.07613  0.36433     C
C      0.66667 -0.07613  1.04513     C
C      0.66667  0.36433 -0.07613     C
C       0.6884      0.0   0.3116     C
C       0.6884      0.0      1.0     C
C       0.6884   0.3116      0.0     C
H       0.7074   -0.135   0.3474     H
H       0.7074   -0.135   1.0802     H
H       0.7074   0.3474   -0.135     H
C       0.7698      0.0   0.2302     C
C       0.7698      0.0      1.0     C
C       0.7698   0.2302      0.0     C
O       0.7952   0.0604   0.2048     O
O       0.7952   0.0604   0.9396     O
O       0.7952   0.2048  -0.0604     O
O       0.7952   0.2048   0.0604     O
H        0.865   0.0802   0.3474     H
H        0.865   0.0802   0.7074     H
H       0.8651   0.0801   0.4795     H
H       0.8651   0.0801   0.5753     H
Zr     0.90835 -0.09165  0.09165    Zr
Zr     0.90835 -0.09165  1.09165    Zr
Zr     0.90835  0.09165 -0.09165    Zr
Zr     0.90835  0.09165  0.09165    Zr
Zr     0.90835  0.09165  0.90835    Zr
Zr     0.90835  0.09165  1.09165    Zr
C      0.92384  0.04516  0.43876     C
C      0.92384  0.04516  0.59224     C
C      0.92387  0.04513  0.36433     C
C      0.92387  0.04513  0.66667     C
O       0.9396   0.0604   0.2048     O
O       0.9396   0.0604   0.7952     O
C          1.0      0.0   0.2302     C
C          1.0      0.0   0.3116     C
C          1.0      0.0   0.4605     C
C          1.0      0.0   0.5395     C
C          1.0      0.0   0.6884     C
C          1.0      0.0   0.7698     C
C      1.07613 -0.04513  0.33333     C
C      1.07613 -0.04513  0.63567     C
C      1.07616 -0.04516  0.40776     C
C      1.07616 -0.04516  0.56124     C
Zr     1.09165 -0.09165  0.09165    Zr
Zr     1.09165 -0.09165  0.90835    Zr
Zr     1.09165  0.09165 -0.09165    Zr
Zr     1.09165  0.09165  0.90835    Zr
H       1.1349  -0.0801   0.4247     H
H       1.1349  -0.0801   0.5205     H
H        1.135  -0.0802   0.2926     H
H        1.135  -0.0802   0.6526     H
