data_I
_chemical_name_common  '/home/zhangsd/repos/MofS-CGCNN/ML/data/WS24/clean_cifs/UKIBIB'
_cell_length_a 33.36940
_cell_length_b 33.36940
_cell_length_c 33.36940
_cell_angle_alpha 90.00000
_cell_angle_beta  90.00000
_cell_angle_gamma 90.00000
_space_group_name_H-M_alt      'P 1'


loop_
_space_group_symop_operation_xyz
  'x, y, z' 

loop_
_atom_site_label
_atom_site_fract_x
_atom_site_fract_y
_atom_site_fract_z
_atom_site_type_symbol
Zr         0.0      0.0   0.4273    Zr
Zr         0.0      0.0   0.5727    Zr
O          0.0   0.0602   0.3918     O
O          0.0   0.0602   0.6082     O
Zr         0.0   0.0727      0.5    Zr
H          0.0   0.0836   0.3332     H
H          0.0   0.0836   0.6668     H
C          0.0   0.0897   0.4103     C
C          0.0   0.0897   0.5897     C
O          0.0   0.1082   0.4398     O
O          0.0   0.1082   0.5602     O
C          0.0   0.1106   0.3404     C
C          0.0   0.1106   0.6596     C
C          0.0   0.1211   0.3789     C
C          0.0   0.1211   0.6211     C
H          0.0    0.132    0.285     H
H          0.0    0.132    0.715     H
C          0.0   0.1391   0.3119     C
C          0.0   0.1391   0.6881     C
C          0.0   0.1596   0.3894     C
C          0.0   0.1596   0.6106     C
H          0.0   0.1668   0.4164     H
H          0.0   0.1668   0.5836     H
C          0.0   0.1777   0.3223     C
C          0.0   0.1777   0.6777     C
C          0.0   0.1881   0.3609     C
C          0.0   0.1881   0.6391     C
C          0.0   0.2092   0.2908     C
C          0.0   0.2092   0.7092     C
H          0.0    0.215    0.368     H
H          0.0    0.215    0.632     H
C          0.0   0.2343   0.2657     C
C          0.0   0.2343   0.7343     C
C          0.0   0.2657   0.2343     C
C          0.0   0.2657   0.7657     C
H          0.0    0.285    0.132     H
H          0.0    0.285    0.868     H
C          0.0   0.2908   0.2092     C
C          0.0   0.2908   0.7908     C
C          0.0   0.3119   0.1391     C
C          0.0   0.3119   0.8609     C
C          0.0   0.3223   0.1777     C
C          0.0   0.3223   0.8223     C
H          0.0   0.3332   0.0836     H
H          0.0   0.3332   0.9164     H
C          0.0   0.3404   0.1106     C
C          0.0   0.3404   0.8894     C
C          0.0   0.3609   0.1881     C
C          0.0   0.3609   0.8119     C
H          0.0    0.368    0.215     H
H          0.0    0.368    0.785     H
C          0.0   0.3789   0.1211     C
C          0.0   0.3789   0.8789     C
C          0.0   0.3894   0.1596     C
C          0.0   0.3894   0.8404     C
O          0.0   0.3918   0.0602     O
O          0.0   0.3918   0.9398     O
C          0.0   0.4103   0.0897     C
C          0.0   0.4103   0.9103     C
H          0.0   0.4164   0.1668     H
H          0.0   0.4164   0.8332     H
Zr         0.0   0.4273      0.0    Zr
O          0.0   0.4398   0.1082     O
O          0.0   0.4398   0.8918     O
Zr         0.0      0.5   0.0727    Zr
Zr         0.0      0.5   0.9273    Zr
O          0.0   0.5602   0.1082     O
O          0.0   0.5602   0.8918     O
Zr         0.0   0.5727      0.0    Zr
H          0.0   0.5836   0.1668     H
H          0.0   0.5836   0.8332     H
C          0.0   0.5897   0.0897     C
C          0.0   0.5897   0.9103     C
O          0.0   0.6082   0.0602     O
O          0.0   0.6082   0.9398     O
C          0.0   0.6106   0.1596     C
C          0.0   0.6106   0.8404     C
C          0.0   0.6211   0.1211     C
C          0.0   0.6211   0.8789     C
H          0.0    0.632    0.215     H
H          0.0    0.632    0.785     H
C          0.0   0.6391   0.1881     C
C          0.0   0.6391   0.8119     C
C          0.0   0.6596   0.1106     C
C          0.0   0.6596   0.8894     C
H          0.0   0.6668   0.0836     H
H          0.0   0.6668   0.9164     H
C          0.0   0.6777   0.1777     C
C          0.0   0.6777   0.8223     C
C          0.0   0.6881   0.1391     C
C          0.0   0.6881   0.8609     C
C          0.0   0.7092   0.2092     C
C          0.0   0.7092   0.7908     C
H          0.0    0.715    0.132     H
H          0.0    0.715    0.868     H
C          0.0   0.7343   0.2343     C
C          0.0   0.7343   0.7657     C
C          0.0   0.7657   0.2657     C
C          0.0   0.7657   0.7343     C
H          0.0    0.785    0.368     H
H          0.0    0.785    0.632     H
C          0.0   0.7908   0.2908     C
C          0.0   0.7908   0.7092     C
C          0.0   0.8119   0.3609     C
C          0.0   0.8119   0.6391     C
C          0.0   0.8223   0.3223     C
C          0.0   0.8223   0.6777     C
H          0.0   0.8332   0.4164     H
H          0.0   0.8332   0.5836     H
C          0.0   0.8404   0.3894     C
C          0.0   0.8404   0.6106     C
C          0.0   0.8609   0.3119     C
C          0.0   0.8609   0.6881     C
H          0.0    0.868    0.285     H
H          0.0    0.868    0.715     H
C          0.0   0.8789   0.3789     C
C          0.0   0.8789   0.6211     C
C          0.0   0.8894   0.3404     C
C          0.0   0.8894   0.6596     C
O          0.0   0.8918   0.4398     O
O          0.0   0.8918   0.5602     O
C          0.0   0.9103   0.4103     C
C          0.0   0.9103   0.5897     C
H          0.0   0.9164   0.3332     H
H          0.0   0.9164   0.6668     H
Zr         0.0   0.9273      0.5    Zr
O          0.0   0.9398   0.3918     O
O          0.0   0.9398   0.6082     O
O       0.0323   0.0323   0.4677     O
O       0.0323   0.0323   0.5323     O
O       0.0323   0.4677   0.0323     O
O       0.0323   0.4677   0.9677     O
O       0.0323   0.5323   0.0323     O
O       0.0323   0.5323   0.9677     O
O       0.0323   0.9677   0.4677     O
O       0.0323   0.9677   0.5323     O
O       0.0602      0.0   0.3918     O
O       0.0602      0.0   0.6082     O
O       0.0602   0.1082      0.5     O
O       0.0602   0.3918      0.0     O
O       0.0602      0.5   0.1082     O
O       0.0602      0.5   0.8918     O
O       0.0602   0.6082      0.0     O
O       0.0602   0.8918      0.5     O
Zr      0.0727      0.0      0.5    Zr
Zr      0.0727      0.5      0.0    Zr
H       0.0836      0.0   0.3332     H
H       0.0836      0.0   0.6668     H
H       0.0836   0.1668      0.5     H
H       0.0836   0.3332      0.0     H
H       0.0836      0.5   0.1668     H
H       0.0836      0.5   0.8332     H
H       0.0836   0.6668      0.0     H
H       0.0836   0.8332      0.5     H
C       0.0897      0.0   0.4103     C
C       0.0897      0.0   0.5897     C
C       0.0897   0.0897      0.5     C
C       0.0897   0.4103      0.0     C
C       0.0897      0.5   0.0897     C
C       0.0897      0.5   0.9103     C
C       0.0897   0.5897      0.0     C
C       0.0897   0.9103      0.5     C
O       0.1082      0.0   0.4398     O
O       0.1082      0.0   0.5602     O
O       0.1082   0.0602      0.5     O
O       0.1082   0.4398      0.0     O
O       0.1082      0.5   0.0602     O
O       0.1082      0.5   0.9398     O
O       0.1082   0.5602      0.0     O
O       0.1082   0.9398      0.5     O
C       0.1106      0.0   0.3404     C
C       0.1106      0.0   0.6596     C
C       0.1106   0.1596      0.5     C
C       0.1106   0.3404      0.0     C
C       0.1106      0.5   0.1596     C
C       0.1106      0.5   0.8404     C
C       0.1106   0.6596      0.0     C
C       0.1106   0.8404      0.5     C
C       0.1211      0.0   0.3789     C
C       0.1211      0.0   0.6211     C
C       0.1211   0.1211      0.5     C
C       0.1211   0.3789      0.0     C
C       0.1211      0.5   0.1211     C
C       0.1211      0.5   0.8789     C
C       0.1211   0.6211      0.0     C
C       0.1211   0.8789      0.5     C
H        0.132      0.0    0.285     H
H        0.132      0.0    0.715     H
H        0.132    0.215      0.5     H
H        0.132    0.285      0.0     H
H        0.132      0.5    0.215     H
H        0.132      0.5    0.785     H
H        0.132    0.715      0.0     H
H        0.132    0.785      0.5     H
C       0.1391      0.0   0.3119     C
C       0.1391      0.0   0.6881     C
C       0.1391   0.1881      0.5     C
C       0.1391   0.3119      0.0     C
C       0.1391      0.5   0.1881     C
C       0.1391      0.5   0.8119     C
C       0.1391   0.6881      0.0     C
C       0.1391   0.8119      0.5     C
C       0.1596      0.0   0.3894     C
C       0.1596      0.0   0.6106     C
C       0.1596   0.1106      0.5     C
C       0.1596   0.3894      0.0     C
C       0.1596      0.5   0.1106     C
C       0.1596      0.5   0.8894     C
C       0.1596   0.6106      0.0     C
C       0.1596   0.8894      0.5     C
H       0.1668      0.0   0.4164     H
H       0.1668      0.0   0.5836     H
H       0.1668   0.0836      0.5     H
H       0.1668   0.4164      0.0     H
H       0.1668      0.5   0.0836     H
H       0.1668      0.5   0.9164     H
H       0.1668   0.5836      0.0     H
H       0.1668   0.9164      0.5     H
C       0.1777      0.0   0.3223     C
C       0.1777      0.0   0.6777     C
C       0.1777   0.1777      0.5     C
C       0.1777   0.3223      0.0     C
C       0.1777      0.5   0.1777     C
C       0.1777      0.5   0.8223     C
C       0.1777   0.6777      0.0     C
C       0.1777   0.8223      0.5     C
C       0.1881      0.0   0.3609     C
C       0.1881      0.0   0.6391     C
C       0.1881   0.1391      0.5     C
C       0.1881   0.3609      0.0     C
C       0.1881      0.5   0.1391     C
C       0.1881      0.5   0.8609     C
C       0.1881   0.6391      0.0     C
C       0.1881   0.8609      0.5     C
C       0.2092      0.0   0.2908     C
C       0.2092      0.0   0.7092     C
C       0.2092   0.2092      0.5     C
C       0.2092   0.2908      0.0     C
C       0.2092      0.5   0.2092     C
C       0.2092      0.5   0.7908     C
C       0.2092   0.7092      0.0     C
C       0.2092   0.7908      0.5     C
H        0.215      0.0    0.368     H
H        0.215      0.0    0.632     H
H        0.215    0.132      0.5     H
H        0.215    0.368      0.0     H
H        0.215      0.5    0.132     H
H        0.215      0.5    0.868     H
H        0.215    0.632      0.0     H
H        0.215    0.868      0.5     H
C       0.2343      0.0   0.2657     C
C       0.2343      0.0   0.7343     C
C       0.2343   0.2343      0.5     C
C       0.2343   0.2657      0.0     C
C       0.2343      0.5   0.2343     C
C       0.2343      0.5   0.7657     C
C       0.2343   0.7343      0.0     C
C       0.2343   0.7657      0.5     C
C       0.2657      0.0   0.2343     C
C       0.2657      0.0   0.7657     C
C       0.2657   0.2343      0.0     C
C       0.2657   0.2657      0.5     C
C       0.2657      0.5   0.2657     C
C       0.2657      0.5   0.7343     C
C       0.2657   0.7343      0.5     C
C       0.2657   0.7657      0.0     C
H        0.285      0.0    0.132     H
H        0.285      0.0    0.868     H
H        0.285    0.132      0.0     H
H        0.285    0.368      0.5     H
H        0.285      0.5    0.368     H
H        0.285      0.5    0.632     H
H        0.285    0.632      0.5     H
H        0.285    0.868      0.0     H
C       0.2908      0.0   0.2092     C
C       0.2908      0.0   0.7908     C
C       0.2908   0.2092      0.0     C
C       0.2908   0.2908      0.5     C
C       0.2908      0.5   0.2908     C
C       0.2908      0.5   0.7092     C
C       0.2908   0.7092      0.5     C
C       0.2908   0.7908      0.0     C
C       0.3119      0.0   0.1391     C
C       0.3119      0.0   0.8609     C
C       0.3119   0.1391      0.0     C
C       0.3119   0.3609      0.5     C
C       0.3119      0.5   0.3609     C
C       0.3119      0.5   0.6391     C
C       0.3119   0.6391      0.5     C
C       0.3119   0.8609      0.0     C
C       0.3223      0.0   0.1777     C
C       0.3223      0.0   0.8223     C
C       0.3223   0.1777      0.0     C
C       0.3223   0.3223      0.5     C
C       0.3223      0.5   0.3223     C
C       0.3223      0.5   0.6777     C
C       0.3223   0.6777      0.5     C
C       0.3223   0.8223      0.0     C
H       0.3332      0.0   0.0836     H
H       0.3332      0.0   0.9164     H
H       0.3332   0.0836      0.0     H
H       0.3332   0.4164      0.5     H
H       0.3332      0.5   0.4164     H
H       0.3332      0.5   0.5836     H
H       0.3332   0.5836      0.5     H
H       0.3332   0.9164      0.0     H
C       0.3404      0.0   0.1106     C
C       0.3404      0.0   0.8894     C
C       0.3404   0.1106      0.0     C
C       0.3404   0.3894      0.5     C
C       0.3404      0.5   0.3894     C
C       0.3404      0.5   0.6106     C
C       0.3404   0.6106      0.5     C
C       0.3404   0.8894      0.0     C
C       0.3609      0.0   0.1881     C
C       0.3609      0.0   0.8119     C
C       0.3609   0.1881      0.0     C
C       0.3609   0.3119      0.5     C
C       0.3609      0.5   0.3119     C
C       0.3609      0.5   0.6881     C
C       0.3609   0.6881      0.5     C
C       0.3609   0.8119      0.0     C
H        0.368      0.0    0.215     H
H        0.368      0.0    0.785     H
H        0.368    0.215      0.0     H
H        0.368    0.285      0.5     H
H        0.368      0.5    0.285     H
H        0.368      0.5    0.715     H
H        0.368    0.715      0.5     H
H        0.368    0.785      0.0     H
C       0.3789      0.0   0.1211     C
C       0.3789      0.0   0.8789     C
C       0.3789   0.1211      0.0     C
C       0.3789   0.3789      0.5     C
C       0.3789      0.5   0.3789     C
C       0.3789      0.5   0.6211     C
C       0.3789   0.6211      0.5     C
C       0.3789   0.8789      0.0     C
C       0.3894      0.0   0.1596     C
C       0.3894      0.0   0.8404     C
C       0.3894   0.1596      0.0     C
C       0.3894   0.3404      0.5     C
C       0.3894      0.5   0.3404     C
C       0.3894      0.5   0.6596     C
C       0.3894   0.6596      0.5     C
C       0.3894   0.8404      0.0     C
O       0.3918      0.0   0.0602     O
O       0.3918      0.0   0.9398     O
O       0.3918   0.0602      0.0     O
O       0.3918   0.4398      0.5     O
O       0.3918      0.5   0.4398     O
O       0.3918      0.5   0.5602     O
O       0.3918   0.5602      0.5     O
O       0.3918   0.9398      0.0     O
C       0.4103      0.0   0.0897     C
C       0.4103      0.0   0.9103     C
C       0.4103   0.0897      0.0     C
C       0.4103   0.4103      0.5     C
C       0.4103      0.5   0.4103     C
C       0.4103      0.5   0.5897     C
C       0.4103   0.5897      0.5     C
C       0.4103   0.9103      0.0     C
H       0.4164      0.0   0.1668     H
H       0.4164      0.0   0.8332     H
H       0.4164   0.1668      0.0     H
H       0.4164   0.3332      0.5     H
H       0.4164      0.5   0.3332     H
H       0.4164      0.5   0.6668     H
H       0.4164   0.6668      0.5     H
H       0.4164   0.8332      0.0     H
Zr      0.4273      0.0      0.0    Zr
Zr      0.4273      0.5      0.5    Zr
O       0.4398      0.0   0.1082     O
O       0.4398      0.0   0.8918     O
O       0.4398   0.1082      0.0     O
O       0.4398   0.3918      0.5     O
O       0.4398      0.5   0.3918     O
O       0.4398      0.5   0.6082     O
O       0.4398   0.6082      0.5     O
O       0.4398   0.8918      0.0     O
O       0.4677   0.0323   0.0323     O
O       0.4677   0.0323   0.9677     O
O       0.4677   0.4677   0.4677     O
O       0.4677   0.4677   0.5323     O
O       0.4677   0.5323   0.4677     O
O       0.4677   0.5323   0.5323     O
O       0.4677   0.9677   0.0323     O
O       0.4677   0.9677   0.9677     O
Zr         0.5      0.0   0.0727    Zr
Zr         0.5      0.0   0.9273    Zr
O          0.5   0.0602   0.1082     O
O          0.5   0.0602   0.8918     O
Zr         0.5   0.0727      0.0    Zr
H          0.5   0.0836   0.1668     H
H          0.5   0.0836   0.8332     H
C          0.5   0.0897   0.0897     C
C          0.5   0.0897   0.9103     C
O          0.5   0.1082   0.0602     O
O          0.5   0.1082   0.9398     O
C          0.5   0.1106   0.1596     C
C          0.5   0.1106   0.8404     C
C          0.5   0.1211   0.1211     C
C          0.5   0.1211   0.8789     C
H          0.5    0.132    0.215     H
H          0.5    0.132    0.785     H
C          0.5   0.1391   0.1881     C
C          0.5   0.1391   0.8119     C
C          0.5   0.1596   0.1106     C
C          0.5   0.1596   0.8894     C
H          0.5   0.1668   0.0836     H
H          0.5   0.1668   0.9164     H
C          0.5   0.1777   0.1777     C
C          0.5   0.1777   0.8223     C
C          0.5   0.1881   0.1391     C
C          0.5   0.1881   0.8609     C
C          0.5   0.2092   0.2092     C
C          0.5   0.2092   0.7908     C
H          0.5    0.215    0.132     H
H          0.5    0.215    0.868     H
C          0.5   0.2343   0.2343     C
C          0.5   0.2343   0.7657     C
C          0.5   0.2657   0.2657     C
C          0.5   0.2657   0.7343     C
H          0.5    0.285    0.368     H
H          0.5    0.285    0.632     H
C          0.5   0.2908   0.2908     C
C          0.5   0.2908   0.7092     C
C          0.5   0.3119   0.3609     C
C          0.5   0.3119   0.6391     C
C          0.5   0.3223   0.3223     C
C          0.5   0.3223   0.6777     C
H          0.5   0.3332   0.4164     H
H          0.5   0.3332   0.5836     H
C          0.5   0.3404   0.3894     C
C          0.5   0.3404   0.6106     C
C          0.5   0.3609   0.3119     C
C          0.5   0.3609   0.6881     C
H          0.5    0.368    0.285     H
H          0.5    0.368    0.715     H
C          0.5   0.3789   0.3789     C
C          0.5   0.3789   0.6211     C
C          0.5   0.3894   0.3404     C
C          0.5   0.3894   0.6596     C
O          0.5   0.3918   0.4398     O
O          0.5   0.3918   0.5602     O
C          0.5   0.4103   0.4103     C
C          0.5   0.4103   0.5897     C
H          0.5   0.4164   0.3332     H
H          0.5   0.4164   0.6668     H
Zr         0.5   0.4273      0.5    Zr
O          0.5   0.4398   0.3918     O
O          0.5   0.4398   0.6082     O
Zr         0.5      0.5   0.4273    Zr
Zr         0.5      0.5   0.5727    Zr
O          0.5   0.5602   0.3918     O
O          0.5   0.5602   0.6082     O
Zr         0.5   0.5727      0.5    Zr
H          0.5   0.5836   0.3332     H
H          0.5   0.5836   0.6668     H
C          0.5   0.5897   0.4103     C
C          0.5   0.5897   0.5897     C
O          0.5   0.6082   0.4398     O
O          0.5   0.6082   0.5602     O
C          0.5   0.6106   0.3404     C
C          0.5   0.6106   0.6596     C
C          0.5   0.6211   0.3789     C
C          0.5   0.6211   0.6211     C
H          0.5    0.632    0.285     H
H          0.5    0.632    0.715     H
C          0.5   0.6391   0.3119     C
C          0.5   0.6391   0.6881     C
C          0.5   0.6596   0.3894     C
C          0.5   0.6596   0.6106     C
H          0.5   0.6668   0.4164     H
H          0.5   0.6668   0.5836     H
C          0.5   0.6777   0.3223     C
C          0.5   0.6777   0.6777     C
C          0.5   0.6881   0.3609     C
C          0.5   0.6881   0.6391     C
C          0.5   0.7092   0.2908     C
C          0.5   0.7092   0.7092     C
H          0.5    0.715    0.368     H
H          0.5    0.715    0.632     H
C          0.5   0.7343   0.2657     C
C          0.5   0.7343   0.7343     C
C          0.5   0.7657   0.2343     C
C          0.5   0.7657   0.7657     C
H          0.5    0.785    0.132     H
H          0.5    0.785    0.868     H
C          0.5   0.7908   0.2092     C
C          0.5   0.7908   0.7908     C
C          0.5   0.8119   0.1391     C
C          0.5   0.8119   0.8609     C
C          0.5   0.8223   0.1777     C
C          0.5   0.8223   0.8223     C
H          0.5   0.8332   0.0836     H
H          0.5   0.8332   0.9164     H
C          0.5   0.8404   0.1106     C
C          0.5   0.8404   0.8894     C
C          0.5   0.8609   0.1881     C
C          0.5   0.8609   0.8119     C
H          0.5    0.868    0.215     H
H          0.5    0.868    0.785     H
C          0.5   0.8789   0.1211     C
C          0.5   0.8789   0.8789     C
C          0.5   0.8894   0.1596     C
C          0.5   0.8894   0.8404     C
O          0.5   0.8918   0.0602     O
O          0.5   0.8918   0.9398     O
C          0.5   0.9103   0.0897     C
C          0.5   0.9103   0.9103     C
H          0.5   0.9164   0.1668     H
H          0.5   0.9164   0.8332     H
Zr         0.5   0.9273      0.0    Zr
O          0.5   0.9398   0.1082     O
O          0.5   0.9398   0.8918     O
O       0.5323   0.0323   0.0323     O
O       0.5323   0.0323   0.9677     O
O       0.5323   0.4677   0.4677     O
O       0.5323   0.4677   0.5323     O
O       0.5323   0.5323   0.4677     O
O       0.5323   0.5323   0.5323     O
O       0.5323   0.9677   0.0323     O
O       0.5323   0.9677   0.9677     O
O       0.5602      0.0   0.1082     O
O       0.5602      0.0   0.8918     O
O       0.5602   0.1082      0.0     O
O       0.5602   0.3918      0.5     O
O       0.5602      0.5   0.3918     O
O       0.5602      0.5   0.6082     O
O       0.5602   0.6082      0.5     O
O       0.5602   0.8918      0.0     O
Zr      0.5727      0.0      0.0    Zr
Zr      0.5727      0.5      0.5    Zr
H       0.5836      0.0   0.1668     H
H       0.5836      0.0   0.8332     H
H       0.5836   0.1668      0.0     H
H       0.5836   0.3332      0.5     H
H       0.5836      0.5   0.3332     H
H       0.5836      0.5   0.6668     H
H       0.5836   0.6668      0.5     H
H       0.5836   0.8332      0.0     H
C       0.5897      0.0   0.0897     C
C       0.5897      0.0   0.9103     C
C       0.5897   0.0897      0.0     C
C       0.5897   0.4103      0.5     C
C       0.5897      0.5   0.4103     C
C       0.5897      0.5   0.5897     C
C       0.5897   0.5897      0.5     C
C       0.5897   0.9103      0.0     C
O       0.6082      0.0   0.0602     O
O       0.6082      0.0   0.9398     O
O       0.6082   0.0602      0.0     O
O       0.6082   0.4398      0.5     O
O       0.6082      0.5   0.4398     O
O       0.6082      0.5   0.5602     O
O       0.6082   0.5602      0.5     O
O       0.6082   0.9398      0.0     O
C       0.6106      0.0   0.1596     C
C       0.6106      0.0   0.8404     C
C       0.6106   0.1596      0.0     C
C       0.6106   0.3404      0.5     C
C       0.6106      0.5   0.3404     C
C       0.6106      0.5   0.6596     C
C       0.6106   0.6596      0.5     C
C       0.6106   0.8404      0.0     C
C       0.6211      0.0   0.1211     C
C       0.6211      0.0   0.8789     C
C       0.6211   0.1211      0.0     C
C       0.6211   0.3789      0.5     C
C       0.6211      0.5   0.3789     C
C       0.6211      0.5   0.6211     C
C       0.6211   0.6211      0.5     C
C       0.6211   0.8789      0.0     C
H        0.632      0.0    0.215     H
H        0.632      0.0    0.785     H
H        0.632    0.215      0.0     H
H        0.632    0.285      0.5     H
H        0.632      0.5    0.285     H
H        0.632      0.5    0.715     H
H        0.632    0.715      0.5     H
H        0.632    0.785      0.0     H
C       0.6391      0.0   0.1881     C
C       0.6391      0.0   0.8119     C
C       0.6391   0.1881      0.0     C
C       0.6391   0.3119      0.5     C
C       0.6391      0.5   0.3119     C
C       0.6391      0.5   0.6881     C
C       0.6391   0.6881      0.5     C
C       0.6391   0.8119      0.0     C
C       0.6596      0.0   0.1106     C
C       0.6596      0.0   0.8894     C
C       0.6596   0.1106      0.0     C
C       0.6596   0.3894      0.5     C
C       0.6596      0.5   0.3894     C
C       0.6596      0.5   0.6106     C
C       0.6596   0.6106      0.5     C
C       0.6596   0.8894      0.0     C
H       0.6668      0.0   0.0836     H
H       0.6668      0.0   0.9164     H
H       0.6668   0.0836      0.0     H
H       0.6668   0.4164      0.5     H
H       0.6668      0.5   0.4164     H
H       0.6668      0.5   0.5836     H
H       0.6668   0.5836      0.5     H
H       0.6668   0.9164      0.0     H
C       0.6777      0.0   0.1777     C
C       0.6777      0.0   0.8223     C
C       0.6777   0.1777      0.0     C
C       0.6777   0.3223      0.5     C
C       0.6777      0.5   0.3223     C
C       0.6777      0.5   0.6777     C
C       0.6777   0.6777      0.5     C
C       0.6777   0.8223      0.0     C
C       0.6881      0.0   0.1391     C
C       0.6881      0.0   0.8609     C
C       0.6881   0.1391      0.0     C
C       0.6881   0.3609      0.5     C
C       0.6881      0.5   0.3609     C
C       0.6881      0.5   0.6391     C
C       0.6881   0.6391      0.5     C
C       0.6881   0.8609      0.0     C
C       0.7092      0.0   0.2092     C
C       0.7092      0.0   0.7908     C
C       0.7092   0.2092      0.0     C
C       0.7092   0.2908      0.5     C
C       0.7092      0.5   0.2908     C
C       0.7092      0.5   0.7092     C
C       0.7092   0.7092      0.5     C
C       0.7092   0.7908      0.0     C
H        0.715      0.0    0.132     H
H        0.715      0.0    0.868     H
H        0.715    0.132      0.0     H
H        0.715    0.368      0.5     H
H        0.715      0.5    0.368     H
H        0.715      0.5    0.632     H
H        0.715    0.632      0.5     H
H        0.715    0.868      0.0     H
C       0.7343      0.0   0.2343     C
C       0.7343      0.0   0.7657     C
C       0.7343   0.2343      0.0     C
C       0.7343   0.2657      0.5     C
C       0.7343      0.5   0.2657     C
C       0.7343      0.5   0.7343     C
C       0.7343   0.7343      0.5     C
C       0.7343   0.7657      0.0     C
C       0.7657      0.0   0.2657     C
C       0.7657      0.0   0.7343     C
C       0.7657   0.2343      0.5     C
C       0.7657   0.2657      0.0     C
C       0.7657      0.5   0.2343     C
C       0.7657      0.5   0.7657     C
C       0.7657   0.7343      0.0     C
C       0.7657   0.7657      0.5     C
H        0.785      0.0    0.368     H
H        0.785      0.0    0.632     H
H        0.785    0.132      0.5     H
H        0.785    0.368      0.0     H
H        0.785      0.5    0.132     H
H        0.785      0.5    0.868     H
H        0.785    0.632      0.0     H
H        0.785    0.868      0.5     H
C       0.7908      0.0   0.2908     C
C       0.7908      0.0   0.7092     C
C       0.7908   0.2092      0.5     C
C       0.7908   0.2908      0.0     C
C       0.7908      0.5   0.2092     C
C       0.7908      0.5   0.7908     C
C       0.7908   0.7092      0.0     C
C       0.7908   0.7908      0.5     C
C       0.8119      0.0   0.3609     C
C       0.8119      0.0   0.6391     C
C       0.8119   0.1391      0.5     C
C       0.8119   0.3609      0.0     C
C       0.8119      0.5   0.1391     C
C       0.8119      0.5   0.8609     C
C       0.8119   0.6391      0.0     C
C       0.8119   0.8609      0.5     C
C       0.8223      0.0   0.3223     C
C       0.8223      0.0   0.6777     C
C       0.8223   0.1777      0.5     C
C       0.8223   0.3223      0.0     C
C       0.8223      0.5   0.1777     C
C       0.8223      0.5   0.8223     C
C       0.8223   0.6777      0.0     C
C       0.8223   0.8223      0.5     C
H       0.8332      0.0   0.4164     H
H       0.8332      0.0   0.5836     H
H       0.8332   0.0836      0.5     H
H       0.8332   0.4164      0.0     H
H       0.8332      0.5   0.0836     H
H       0.8332      0.5   0.9164     H
H       0.8332   0.5836      0.0     H
H       0.8332   0.9164      0.5     H
C       0.8404      0.0   0.3894     C
C       0.8404      0.0   0.6106     C
C       0.8404   0.1106      0.5     C
C       0.8404   0.3894      0.0     C
C       0.8404      0.5   0.1106     C
C       0.8404      0.5   0.8894     C
C       0.8404   0.6106      0.0     C
C       0.8404   0.8894      0.5     C
C       0.8609      0.0   0.3119     C
C       0.8609      0.0   0.6881     C
C       0.8609   0.1881      0.5     C
C       0.8609   0.3119      0.0     C
C       0.8609      0.5   0.1881     C
C       0.8609      0.5   0.8119     C
C       0.8609   0.6881      0.0     C
C       0.8609   0.8119      0.5     C
H        0.868      0.0    0.285     H
H        0.868      0.0    0.715     H
H        0.868    0.215      0.5     H
H        0.868    0.285      0.0     H
H        0.868      0.5    0.215     H
H        0.868      0.5    0.785     H
H        0.868    0.715      0.0     H
H        0.868    0.785      0.5     H
C       0.8789      0.0   0.3789     C
C       0.8789      0.0   0.6211     C
C       0.8789   0.1211      0.5     C
C       0.8789   0.3789      0.0     C
C       0.8789      0.5   0.1211     C
C       0.8789      0.5   0.8789     C
C       0.8789   0.6211      0.0     C
C       0.8789   0.8789      0.5     C
C       0.8894      0.0   0.3404     C
C       0.8894      0.0   0.6596     C
C       0.8894   0.1596      0.5     C
C       0.8894   0.3404      0.0     C
C       0.8894      0.5   0.1596     C
C       0.8894      0.5   0.8404     C
C       0.8894   0.6596      0.0     C
C       0.8894   0.8404      0.5     C
O       0.8918      0.0   0.4398     O
O       0.8918      0.0   0.5602     O
O       0.8918   0.0602      0.5     O
O       0.8918   0.4398      0.0     O
O       0.8918      0.5   0.0602     O
O       0.8918      0.5   0.9398     O
O       0.8918   0.5602      0.0     O
O       0.8918   0.9398      0.5     O
C       0.9103      0.0   0.4103     C
C       0.9103      0.0   0.5897     C
C       0.9103   0.0897      0.5     C
C       0.9103   0.4103      0.0     C
C       0.9103      0.5   0.0897     C
C       0.9103      0.5   0.9103     C
C       0.9103   0.5897      0.0     C
C       0.9103   0.9103      0.5     C
H       0.9164      0.0   0.3332     H
H       0.9164      0.0   0.6668     H
H       0.9164   0.1668      0.5     H
H       0.9164   0.3332      0.0     H
H       0.9164      0.5   0.1668     H
H       0.9164      0.5   0.8332     H
H       0.9164   0.6668      0.0     H
H       0.9164   0.8332      0.5     H
Zr      0.9273      0.0      0.5    Zr
Zr      0.9273      0.5      0.0    Zr
O       0.9398      0.0   0.3918     O
O       0.9398      0.0   0.6082     O
O       0.9398   0.1082      0.5     O
O       0.9398   0.3918      0.0     O
O       0.9398      0.5   0.1082     O
O       0.9398      0.5   0.8918     O
O       0.9398   0.6082      0.0     O
O       0.9398   0.8918      0.5     O
O       0.9677   0.0323   0.4677     O
O       0.9677   0.0323   0.5323     O
O       0.9677   0.4677   0.0323     O
O       0.9677   0.4677   0.9677     O
O       0.9677   0.5323   0.0323     O
O       0.9677   0.5323   0.9677     O
O       0.9677   0.9677   0.4677     O
O       0.9677   0.9677   0.5323     O
