data_I
_chemical_name_common  '/home/zhangsd/repos/MofS-CGCNN/ML/data/WS24/clean_cifs/ULASEH'
_cell_length_a 13.76440
_cell_length_b 16.39120
_cell_length_c 17.76450
_cell_angle_alpha 90.00000
_cell_angle_beta  90.00000
_cell_angle_gamma 91.26100
_space_group_name_H-M_alt      'P 1'


loop_
_space_group_symop_operation_xyz
  'x, y, z' 

loop_
_atom_site_label
_atom_site_fract_x
_atom_site_fract_y
_atom_site_fract_z
_atom_site_type_symbol
Co         0.0      0.0      0.0    Co
Co         0.0      0.5      0.5    Co
O       0.0006   0.4334   0.6133     O
O       0.0006   0.9334   0.8867     O
N       0.0012   0.1478    0.564     N
N       0.0012   0.6478    0.936     N
N       0.0025   0.3775   0.4506     N
N       0.0025   0.8775   0.0494     N
C       0.0036    0.166   0.5023     C
C       0.0036    0.666   0.9977     C
C       0.0042   0.3101    0.434     C
C       0.0042   0.8101    0.066     C
Cr     0.00531  0.20209  0.39916    Cr
Cr     0.00531  0.70209  0.10084    Cr
N       0.0065   0.0248   0.3491     N
N       0.0065   0.5248   0.1509     N
Co     0.00669    0.395  0.17743    Co
Co     0.00669    0.895  0.32257    Co
C       0.0071   0.0926    0.367     C
C       0.0071   0.5926    0.133     C
C       0.0074   0.2426   0.2989     C
C       0.0074   0.7426   0.2011     C
N        0.008   0.2762   0.2418     N
N        0.008   0.7762   0.2582     N
H       0.0128   0.4869   0.3199     H
H       0.0128   0.9869   0.1801     H
O       0.0162    0.442   0.2928     O
O       0.0162    0.942   0.2072     O
H       0.0215   0.3916   0.5872     H
H       0.0215   0.8916   0.9128     H
H       0.0463   0.4089   0.3236     H
H       0.0463   0.9089   0.1764     H
H        0.055   0.0856   0.1312     H
H        0.055   0.5856   0.3688     H
C       0.1336   0.3016   0.8989     C
C       0.1336   0.8016   0.6011     C
C       0.1439   0.2078   0.4005     C
C       0.1439   0.7078   0.0995     C
N       0.1573   0.1037   0.6876     N
N       0.1573   0.6037   0.8124     N
N       0.1631   0.0025   0.9974     N
N       0.1631   0.5025   0.5026     N
H       0.1635   0.1656    0.783     H
H       0.1635   0.6656    0.717     H
N       0.1668   0.3571   0.6439     N
N       0.1668   0.8571   0.8561     N
H       0.1678   0.2047   0.0498     H
H       0.1678   0.7047   0.4502     H
N         0.17   0.1457   0.1441     N
N         0.17   0.6457   0.3559     N
N       0.1724   0.3974   0.1766     N
N       0.1724   0.8974   0.3234     N
H       0.1758   0.2967   0.5525     H
H       0.1758   0.7967   0.9475     H
H       0.1792   0.0692    0.907     H
H       0.1792   0.5692    0.593     H
H       0.1844   0.4074   0.7427     H
H       0.1844   0.9074   0.7573     H
H       0.1845   0.0453    0.598     H
H       0.1845   0.5453    0.902     H
H       0.1857   0.4384   0.4148     H
H       0.1857   0.9384   0.0852     H
H       0.1876   0.3477    0.272     H
H       0.1876   0.8477    0.228     H
H       0.1898   0.4471   0.0795     H
H       0.1898   0.9471   0.4205     H
C       0.2017   0.1444   0.7448     C
C       0.2017   0.6444   0.7552     C
H       0.2018   0.1019   0.2424     H
H       0.2018   0.6019   0.2576     H
C       0.2092   0.1863   0.0872     C
C       0.2092   0.6863   0.4128     C
C       0.2116   0.3178   0.5927     C
C       0.2116   0.8178   0.9073     C
C       0.2124   0.0771    0.636     C
C       0.2124   0.5771    0.864     C
C       0.2142   0.0419   0.9437     C
C       0.2142   0.5419   0.5563     C
N       0.2169   0.3016   0.9005     N
C       0.2169   0.3821   0.7035     C
N       0.2169   0.8016   0.5995     N
C       0.2169   0.8821   0.7965     C
C       0.2176    0.467    0.453     C
C       0.2176    0.967    0.047     C
C       0.2218   0.3651   0.2296     C
C       0.2218   0.8651   0.2704     C
C       0.2222   0.4211   0.1183     C
C       0.2222   0.9211   0.3817     C
N       0.2271    0.213    0.401     N
N       0.2271    0.713    0.099     N
C        0.228   0.1251    0.199     C
C        0.228   0.6251    0.301     C
C       0.3012   0.1559   0.7491     C
C       0.3012   0.6559   0.7509     C
C       0.3064   0.2031   0.0793     C
C       0.3064   0.7031   0.4207     C
C       0.3093   0.3054   0.5941     C
C       0.3093   0.8054   0.9059     C
C       0.3118   0.0454   0.9383     C
C       0.3118   0.5454   0.5617     C
C       0.3147   0.0931   0.6331     C
C       0.3147   0.5931   0.8669     C
C       0.3159   0.3718   0.7091     C
C       0.3159   0.8718   0.7909     C
C       0.3179   0.4103   0.1109     C
C       0.3179   0.9103   0.3891     C
C       0.3195   0.4676   0.4515     C
C       0.3195   0.9676   0.0485     C
C       0.3196    0.354   0.2297     C
C       0.3196    0.854   0.2703     C
H       0.3275   0.1801    0.792     H
H       0.3275   0.6801    0.708     H
H       0.3288   0.2309   0.0368     H
H       0.3288   0.7309   0.4632     H
C       0.3331    0.138   0.1933     C
C       0.3331    0.638   0.3067     C
H       0.3391   0.2822   0.5525     H
H       0.3391   0.7822   0.9475     H
H       0.3417   0.0742   0.8992     H
H       0.3417   0.5742   0.6008     H
H       0.3503   0.4265   0.0673     H
H       0.3503   0.9265   0.4327     H
H       0.3504   0.3951    0.749     H
H       0.3504   0.8951    0.751     H
H       0.3508   0.3325   0.2714     H
H       0.3508   0.8325   0.2286     H
H       0.3512   0.0773   0.5918     H
H       0.3512   0.5773   0.9082     H
H       0.3546    0.443   0.4134     H
H       0.3546    0.943   0.0866     H
C       0.3595   0.1343    0.696     C
C       0.3595   0.6343    0.804     C
C       0.3636   0.3265   0.6552     C
C       0.3636   0.8265   0.8448     C
C        0.364   0.0081    0.988     C
C        0.364   0.5081    0.512     C
C       0.3674   0.1809     0.13     C
C       0.3674   0.6809     0.37     C
C       0.3675   0.3742   0.1697     C
C       0.3675   0.8742   0.3303     C
H       0.3752   0.1187   0.2299     H
H       0.3752   0.6187   0.2701     H
C       0.4523   0.2819   0.6795     C
C       0.4523   0.7819   0.8205     C
C        0.454    0.139    0.094     C
C        0.454    0.639    0.406     C
C       0.4559   0.1855   0.6962     C
C       0.4559   0.6855   0.8038     C
H        0.458   0.1144   0.0104     H
H        0.458   0.6144   0.4896     H
C        0.461   0.3961   0.6299     C
C        0.461   0.8961   0.8701     C
H       0.4614   0.1521   0.7353     H
H       0.4614   0.6521   0.7647     H
C       0.4615   0.2276   0.1358     C
C       0.4615   0.7276   0.3642     C
C       0.4653    0.491    0.536     C
C       0.4653    0.991    0.964     C
C       0.4657    0.416    0.171     C
C       0.4657    0.916    0.329     C
C       0.4666    0.108    0.689     C
C       0.4666    0.608    0.811     C
C       0.4688   0.3264   0.1451     C
C       0.4688   0.8264   0.3549     C
H       0.4733   0.4408   0.5558     H
H       0.4733   0.9408   0.9442     H
H       0.4738   0.3086   0.7262     H
H       0.4738   0.8086   0.7738     H
C        0.479    0.069    0.022     C
C        0.479    0.569    0.478     C
H       0.4811   0.4693   0.1557     H
H       0.4811   0.9693   0.3443     H
H        0.484   0.1796   0.7465     H
H        0.484   0.6796   0.7535     H
H       0.4858   0.1811   0.0693     H
H       0.4858   0.6811   0.4307     H
H       0.4871    0.221   0.0847     H
H       0.4871    0.721   0.4153     H
H       0.4878   0.4439   0.6437     H
H       0.4878   0.9439   0.8563     H
H       0.4951   0.3508   0.0988     H
H       0.4951   0.8508   0.4012     H
H       0.5049   0.1492   0.5988     H
H       0.5049   0.6492   0.9012     H
H       0.5122   0.0561   0.1437     H
H       0.5122   0.5561   0.3563     H
H       0.5129    0.279   0.5847     H
H       0.5129    0.779   0.9153     H
H       0.5142   0.3189   0.5693     H
H       0.5142   0.8189   0.9307     H
H        0.516   0.3204   0.2465     H
H        0.516   0.8204   0.2535     H
H       0.5189   0.0307   0.6557     H
H       0.5189   0.5307   0.8443     H
C        0.521    0.431    0.522     C
C        0.521    0.931    0.978     C
H       0.5262   0.1914   0.2262     H
H       0.5262   0.6914   0.2738     H
H       0.5267   0.0592   0.0558     H
H       0.5267   0.5592   0.4442     H
C       0.5312   0.1736   0.6451     C
C       0.5312   0.6736   0.8549     C
C       0.5334    0.392    0.189     C
C       0.5334    0.892    0.311     C
C       0.5343    0.084    0.671     C
C       0.5343    0.584    0.829     C
C       0.5347    0.009    0.036     C
C       0.5347    0.509    0.464     C
C       0.5385   0.2724   0.6358     C
C       0.5385   0.7724   0.8642     C
H       0.5386   0.3479   0.2353     H
H       0.5386   0.8479   0.2647     H
C        0.539   0.1039   0.1299     C
C        0.539   0.6039   0.3701     C
H        0.542   0.3856   0.5104     H
H        0.542   0.8856   0.9896     H
C       0.5441   0.3145   0.1962     C
C       0.5441   0.8145   0.3038     C
C        0.546    0.361    0.594     C
C        0.546    0.861    0.906     C
C       0.5477   0.2181   0.1795     C
C       0.5477   0.7181   0.3205     C
H       0.6248   0.3813   0.7299     H
H       0.6248   0.8813   0.7701     H
C       0.6325   0.1258   0.6697     C
C       0.6325   0.6258   0.8303     C
C       0.6326   0.3191     0.63     C
C       0.6326   0.8191     0.87     C
C        0.636   0.4919    0.488     C
C        0.636   0.9919    0.012     C
C       0.6364   0.1735   0.1552     C
C       0.6364   0.6735   0.3448     C
C       0.6405   0.3657    0.196     C
C       0.6405   0.8657    0.304     C
H       0.6454    0.057   0.9134     H
H       0.6454    0.557   0.5866     H
H       0.6488   0.4227   0.0918     H
H       0.6488   0.9227   0.4082     H
H       0.6492   0.1675   0.7714     H
H       0.6492   0.6675   0.7286     H
H       0.6496   0.1049    0.249     H
H       0.6496   0.6049    0.251     H
H       0.6497   0.0735   0.5673     H
H       0.6497   0.5735   0.9327     H
H       0.6583   0.4258   0.3992     H
H       0.6583   0.9258   0.1008     H
H       0.6609   0.2178   0.0525     H
H       0.6609   0.7178   0.4475     H
C       0.6669    0.362   0.6933     C
C       0.6669    0.862   0.8067     C
H       0.6712   0.2691   0.5368     H
H       0.6712   0.7691   0.9632     H
H       0.6725   0.3199    0.292     H
H       0.6725   0.8199    0.208     H
C       0.6804    0.146   0.7297     C
C       0.6804    0.646   0.7703     C
C       0.6805   0.0324   0.9515     C
C       0.6805   0.5324   0.5485     C
C       0.6821   0.0897   0.6109     C
C       0.6821   0.5897   0.8891     C
C       0.6841   0.1282   0.2091     C
C       0.6841   0.6282   0.2909     C
C       0.6853   0.4069   0.1331     C
C       0.6853   0.9069   0.3669     C
C       0.6882   0.4546   0.4383     C
C       0.6882   0.9546   0.0617     C
C       0.6907   0.1946   0.0941     C
C       0.6907   0.6946   0.4059     C
C       0.6936   0.2969   0.5793     C
C       0.6936   0.7969   0.9207     C
C       0.6988   0.3441   0.2491     C
C       0.6988   0.8441   0.2509     C
C        0.772   0.3749    0.699     C
C        0.772   0.8749    0.801     C
N       0.7729    0.287    0.901     N
N       0.7729    0.787    0.599     N
C       0.7778   0.0789   0.6183     C
C       0.7778   0.5789   0.8817     C
C       0.7782   0.1349   0.7296     C
C       0.7782   0.6349   0.7704     C
C       0.7824    0.033    0.953     C
C       0.7824    0.533    0.547     C
C       0.7831   0.1179   0.2035     C
N       0.7831   0.1984   0.4005     N
C       0.7831   0.6179   0.2965     C
N       0.7831   0.6984   0.0995     N
C       0.7858   0.4581   0.4437     C
C       0.7858   0.9581   0.0563     C
C       0.7876   0.4229    0.136     C
C       0.7876   0.9229    0.364     C
C       0.7884   0.1822   0.0927     C
C       0.7884   0.6822   0.4073     C
C       0.7908   0.3137   0.5872     C
C       0.7908   0.8137   0.9128     C
H       0.7982   0.3981   0.7424     H
H       0.7982   0.8981   0.7576     H
C       0.7983   0.3556   0.2448     C
C       0.7983   0.8556   0.2552     C
H       0.8102   0.0529   0.5795     H
H       0.8102   0.5529   0.9205     H
H       0.8124   0.1523    0.772     H
H       0.8124   0.6523    0.728     H
H       0.8143   0.0616   0.9148     H
H       0.8143   0.5616   0.5852     H
H       0.8155   0.4547    0.098     H
H       0.8155   0.9547    0.402     H
H       0.8156   0.0926   0.2427     H
H       0.8156   0.5926   0.2573     H
H       0.8208   0.4308    0.407     H
H       0.8208   0.9308    0.093     H
H       0.8242   0.2033   0.0525     H
H       0.8242   0.7033   0.4475     H
N       0.8276   0.1026   0.6766     N
N       0.8276   0.6026   0.8234     N
N         0.83   0.3543   0.6441     N
N         0.83   0.8543   0.8559     N
H       0.8322   0.2953   0.5498     H
H       0.8322   0.7953   0.9502     H
N       0.8332   0.1429   0.1439     N
N       0.8332   0.6429   0.3561     N
H       0.8365   0.3344    0.283     H
H       0.8365   0.8344    0.217     H
N       0.8369   0.4975   0.4974     N
N       0.8369   0.9975   0.0026     N
N       0.8427   0.3963   0.1876     N
N       0.8427   0.8963   0.3124     N
C       0.8561   0.2922   0.9005     C
C       0.8561   0.7922   0.5995     C
C       0.8664   0.1984   0.3989     C
C       0.8664   0.6984   0.1011     C
H        0.945   0.4144   0.6312     H
H        0.945   0.9144   0.8688     H
H       0.9537   0.0911   0.8236     H
H       0.9537   0.5911   0.6764     H
H       0.9785   0.1084   0.0872     H
H       0.9785   0.6084   0.4128     H
O       0.9838    0.058   0.7928     O
O       0.9838    0.558   0.7072     O
H       0.9872   0.0131   0.8199     H
H       0.9872   0.5131   0.6801     H
N        0.992   0.2238   0.7418     N
N        0.992   0.7238   0.7582     N
C       0.9926   0.2574   0.7989     C
C       0.9926   0.7574   0.7011     C
C       0.9929   0.4074    0.867     C
C       0.9929   0.9074    0.633     C
Co     0.99331    0.105  0.67743    Co
Co     0.99331    0.605  0.82257    Co
N       0.9935   0.4752   0.8491     N
N       0.9935   0.9752   0.6509     N
Cr     0.99469  0.29791  0.89916    Cr
Cr     0.99469  0.79791  0.60084    Cr
C       0.9958   0.1899    0.934     C
C       0.9958   0.6899    0.566     C
C       0.9964    0.334   0.0023     C
C       0.9964    0.834   0.4977     C
N       0.9975   0.1225   0.9506     N
N       0.9975   0.6225   0.5494     N
N       0.9988   0.3522    0.064     N
N       0.9988   0.8522    0.436     N
O       0.9994   0.0666   0.1133     O
O       0.9994   0.5666   0.3867     O
