data_I
_chemical_name_common  '/home/zhangsd/repos/MofS-CGCNN/ML/data/WS24/clean_cifs/ULASAD'
_cell_length_a 13.91900
_cell_length_b 17.89650
_cell_length_c 16.13610
_cell_angle_alpha 90.00000
_cell_angle_beta  98.61900
_cell_angle_gamma 90.00000
_space_group_name_H-M_alt      'P 1'


loop_
_space_group_symop_operation_xyz
  'x, y, z' 

loop_
_atom_site_label
_atom_site_fract_x
_atom_site_fract_y
_atom_site_fract_z
_atom_site_type_symbol
Co         0.0      0.0      0.0    Co
Co         0.0      0.5      0.5    Co
Cr     0.00026  0.60029  0.80153    Cr
Cr     0.00026  0.89971  0.30153    Cr
Co     0.00161  0.67827  0.11318    Co
Co     0.00161  0.82173  0.61318    Co
C       0.0045   0.1313   0.5878     C
C       0.0045   0.3687   0.0878     C
C       0.0046   0.5009   0.1666     C
C       0.0046   0.9991   0.6666     C
C       0.0054   0.5677   0.6916     C
C       0.0054   0.6995   0.7639     C
C       0.0054   0.8005   0.2639     C
C       0.0054   0.9323   0.1916     C
N       0.0073   0.1492   0.5191     N
N       0.0073   0.3508   0.0191     N
N       0.0075   0.5507    0.624     N
N       0.0075   0.9493    0.124     N
N       0.0078   0.5626   0.1512     N
N       0.0078   0.9374   0.6512     N
N       0.0086   0.7424   0.2322     N
N       0.0086   0.7576   0.7322     N
C       0.1395   0.5976   0.8239     C
C       0.1395   0.9024   0.3239     C
C       0.1396    0.103   0.7222     C
C       0.1396    0.397   0.2222     C
N       0.1648   0.0026   0.0161     N
N       0.1648   0.4974   0.5161     N
H       0.1806   0.0922     0.95     H
H       0.1806   0.4078     0.45     H
H       0.1851   0.5882   0.5835     H
H       0.1851   0.9118   0.0835     H
C       0.2147   0.0529   0.9784     C
C       0.2147   0.4471   0.4784     C
C       0.2174   0.5526   0.5559     C
C       0.2174   0.9474   0.0559     C
N       0.2219   0.1039   0.7374     N
N       0.2219   0.3961   0.2374     N
N       0.2229   0.5955   0.8336     N
N       0.2229   0.9045   0.3336     N
C       0.3143   0.0496   0.9793     C
C       0.3143   0.4504   0.4793     C
C        0.316   0.5604    0.559     C
C        0.316   0.9396    0.059     C
H       0.3458   0.0868   0.9533     H
H       0.3458   0.4132   0.4533     H
H       0.3485   0.6001   0.5879     H
H       0.3485   0.8999   0.0879     H
C       0.3665   0.5089   0.5189     C
C       0.3665   0.9911   0.0189     C
C       0.4741   0.5188   0.5208     C
C       0.4741   0.9812   0.0208     C
H       0.4954   0.0558   0.9443     H
H       0.4954   0.4442   0.4443     H
H       0.5046   0.5558   0.5557     H
H       0.5046   0.9442   0.0557     H
C       0.5259   0.0188   0.9792     C
C       0.5259   0.4812   0.4792     C
C       0.6335   0.0089   0.9811     C
C       0.6335   0.4911   0.4811     C
H       0.6515   0.1001   0.9121     H
H       0.6515   0.3999   0.4121     H
H       0.6542   0.5868   0.5467     H
H       0.6542   0.9132   0.0467     H
C        0.684   0.0604    0.941     C
C        0.684   0.4396    0.441     C
C       0.6857   0.5496   0.5207     C
C       0.6857   0.9504   0.0207     C
N       0.7771   0.0955   0.6664     N
N       0.7771   0.4045   0.1664     N
N       0.7781   0.6039   0.7626     N
N       0.7781   0.8961   0.2626     N
C       0.7826   0.0526   0.9441     C
C       0.7826   0.4474   0.4441     C
C       0.7853   0.5529   0.5216     C
C       0.7853   0.9471   0.0216     C
H       0.8149   0.0882   0.9165     H
H       0.8149   0.4118   0.4165     H
H       0.8194   0.5922     0.55     H
H       0.8194   0.9078     0.05     H
N       0.8352   0.5026   0.4839     N
N       0.8352   0.9974   0.9839     N
C       0.8604    0.603   0.7778     C
C       0.8604    0.897   0.2778     C
C       0.8605   0.0976   0.6761     C
C       0.8605   0.4024   0.1761     C
N       0.9914   0.2424   0.2678     N
N       0.9914   0.2576   0.7678     N
N       0.9922   0.0626   0.3488     N
N       0.9922   0.4374   0.8488     N
N       0.9925   0.0507    0.876     N
N       0.9925   0.4493    0.376     N
N       0.9927   0.6492   0.9809     N
N       0.9927   0.8508   0.4809     N
C       0.9946   0.0677   0.8084     C
C       0.9946   0.1995   0.7361     C
C       0.9946   0.3005   0.2361     C
C       0.9946   0.4323   0.3084     C
C       0.9954   0.0009   0.3334     C
C       0.9954   0.4991   0.8334     C
C       0.9955   0.6313   0.9122     C
C       0.9955   0.8687   0.4122     C
Co     0.99839  0.17827  0.38682    Co
Co     0.99839  0.32173  0.88682    Co
Cr     0.99974  0.10029  0.69847    Cr
Cr     0.99974  0.39971  0.19847    Cr
