data_I
_chemical_name_common  '/home/zhangsd/repos/MofS-CGCNN/ML/data/WS24/clean_cifs/UMCM-1'
_cell_length_a 41.52628
_cell_length_b 41.52628
_cell_length_c 17.49165
_cell_angle_alpha 90.00000
_cell_angle_beta  90.00000
_cell_angle_gamma 120.00000
_space_group_name_H-M_alt      'P 1'


loop_
_space_group_symop_operation_xyz
  'x, y, z' 

loop_
_atom_site_label
_atom_site_fract_x
_atom_site_fract_y
_atom_site_fract_z
_atom_site_type_symbol
Zn    -0.069703 0.40887217     0.25    Zn
O     -0.0479811 0.440367 0.3382817     O
H      -0.0377   0.4977   0.4011     H
Zn    -0.03008317 0.37169712 0.159403    Zn
Zn    -0.03008317 0.37169712 0.340603    Zn
C     -0.0274218 0.4402211  0.39054     C
C     -0.02272 0.4983614  0.44114     C
O     -0.0175411 0.416277 0.3984216     O
H      -0.0155   0.5458   0.4876     H
O     -0.0150511 0.628068 0.6863516     O
O     -0.0150511 0.628068 0.8136516     O
C     -0.0131317 0.4712511  0.44764     C
C     -0.0088718 0.5271913  0.49274     C
C     0.0088718 0.4728113  0.50734     C
C     0.0131317 0.5287511  0.55244     C
O     0.0150511 0.371948 0.1863516     O
O     0.0150511 0.371948 0.3136516     O
H       0.0155   0.4542   0.5124     H
O     0.0175411 0.583737 0.6015816     O
O     0.0175411 0.583737 0.8984216     O
C      0.02272 0.5016414  0.55894     C
C     0.0274218 0.5597811  0.60954     C
C      0.02914 0.3717016     0.25     C
Zn    0.03008317 0.62830312 -0.159403    Zn
Zn    0.03008317 0.62830312 0.659403    Zn
Zn    0.03008317 0.62830312 0.840603    Zn
H       0.0377   0.5023   0.5989     H
O     0.0479811 0.559647 0.6617217     O
O     0.0479811 0.559647 0.8382817     O
O     0.0587512 0.631638     0.75     O
O     0.0590911 0.670167 -0.0935816     O
O     0.0590911 0.670167 0.5935816     O
H       0.0595   0.3468   0.3513     H
H       0.0614   0.6981    0.031     H
H       0.0614   0.6981    0.469     H
C     0.0645716  0.37122     0.25     C
Zn    0.069703 0.59112817     0.75    Zn
C      0.07574  0.35764  0.31048     C
H         0.08   0.3925   0.1429     H
H       0.0862   0.7304    0.143     H
H       0.0862   0.7304    0.357     H
C      0.08674 0.7147813  0.03374     C
C      0.08674 0.7147813  0.46634     C
C      0.08714  0.38464  0.18638     C
C     0.0915817 0.6970011 -0.09824     C
C     0.0915817 0.6970011  0.59824     C
C      0.10174 0.7342514  0.10164     C
C      0.10174 0.7342514  0.39844     C
Zn    0.105483 0.67859717    -0.25    Zn
Zn    0.105483 0.67859717     0.75    Zn
C     0.1082718 0.7196311 -0.02824     C
C     0.1082718 0.7196311  0.52824     C
C      0.10914  0.35904  0.31309     C
O     0.1116711 0.705917 -0.1565016     O
O     0.1116711 0.705917 0.6565016     O
H       0.1162    0.351   0.3563     H
H       0.1198   0.7385     0.25     H
C      0.12094  0.38555  0.19089     C
O     0.1219116 0.6082011     0.75     O
C     0.1325918  0.37262     0.25     C
H        0.137    0.396   0.1496     H
C      0.13962 0.7593112  0.10784     C
C      0.13962 0.7593112  0.39224     C
C      0.14124 0.7618218     0.25     C
C      0.14564 0.7457313 -0.02304     C
C      0.14564 0.7457313  0.52304     C
O     0.1464616 0.6699511     0.75     O
C      0.14874  0.64132     0.75     C
C      0.15652 0.7784312  0.18094     C
C      0.15652 0.7784312  0.31914     C
C      0.16034 0.7650414  0.04334     C
C      0.16034 0.7650414  0.45674     C
H       0.1609   0.7502  -0.0651     H
H       0.1609   0.7502   0.5651     H
C     0.1689717  0.37392     0.25     C
H       0.1742   0.5966   0.7054     H
H       0.1748   0.3735   0.1356     H
H       0.1748   0.3735   0.3644     H
H       0.1855   0.7828   0.0445     H
H       0.1855   0.7828   0.4555     H
C     0.1865912 0.3749516  0.18172     C
C     0.1865912 0.3749516  0.31832     C
C      0.18734 0.6457916     0.75     C
C      0.18842 0.8134112  0.18172     C
C      0.18842 0.8134112  0.31832     C
C      0.19394  0.61872  0.72388     C
H       0.1987   0.8252   0.1356     H
H       0.1987   0.8252   0.3644     H
C      0.20494 0.8310317     0.25     C
H       0.2129   0.6967   0.8026     H
C      0.21704  0.67842  0.78227     C
H       0.2172   0.4027   0.0445     H
H       0.2172   0.4027   0.4555     H
C     0.2215712 0.3780416  0.18094     C
C     0.2215712 0.3780416  0.31914     C
C      0.22914  0.62342 0.724213     C
H       0.2328   0.6044   0.7066     H
H       0.2348   0.8838   0.3563     H
C     0.2349614 0.3952718  0.04334     C
C     0.2349614 0.3952718  0.45674     C
C     0.2381818  0.37942     0.25     C
C      0.24004 0.8674118     0.25     C
C     0.2406912 0.3802616  0.10784     C
C     0.2406912 0.3802616  0.39224     C
H       0.2498   0.4107  -0.0651     H
H       0.2498   0.4107   0.5651     H
C      0.24997  0.89094  0.31309     C
C      0.25204  0.68302  0.78307     C
C     0.2542713 0.3998916 -0.02304     C
C     0.2542713 0.3998916  0.52304     C
C      0.25894 0.6556617     0.75     C
H        0.259    0.863   0.1496     H
H       0.2615   0.3813     0.25     H
C      0.26467  0.87914  0.19089     C
C     0.2657514 0.3674718  0.10164     C
C     0.2657514 0.3674718  0.39844     C
H       0.2696   0.3558    0.143     H
H       0.2696   0.3558    0.357     H
H       0.2715   0.7041   0.8053     H
C     0.2803711 0.3886413 -0.02824     C
C     0.2803711 0.3886413  0.52824     C
C      0.28197  0.92434  0.31048     C
H       0.2827   0.6071     0.75     H
C     0.2852213 0.3719516  0.03374     C
C     0.2852213 0.3719516  0.46634     C
H       0.2873   0.9405   0.3513     H
O     0.294097 0.405768 -0.1565016     O
O     0.294097 0.405768 0.6565016     O
H       0.2959   0.5674   0.6947     H
C      0.29755  0.91294  0.18638     C
C      0.29764 0.6616116     0.75     C
H       0.3019   0.3633    0.031     H
H       0.3019   0.3633    0.469     H
C     0.3029416 0.6310717     0.75     C
C     0.3030011 0.3945812 -0.09824     C
C     0.3030011 0.3945812  0.59824     C
H       0.3033   0.5162   0.6974     H
C      0.30664 0.9354316     0.25     C
H       0.3125     0.92   0.1429     H
C      0.31702  0.56902  0.71707     C
Zn    0.32140317 0.42688418    -0.25    Zn
Zn    0.32140317 0.42688418     0.75    Zn
C      0.32162  0.53862  0.71787     C
H       0.3244   0.7173     0.75     H
C      0.32814 0.6970616     0.75     C
O     0.329847 0.388938 -0.0935816     O
O     0.329847 0.388938 0.5935816     O
O     0.3300511 0.4765111     0.75     O
C     0.3383916 0.6359616     0.75     C
C     0.3426316  0.97094     0.25     C
C     0.3443417 0.6031916     0.75     C
H       0.3468   0.2873   0.8513     H
H        0.351   0.2348   0.8563     H
C     0.3542116 0.5415516     0.75     C
H       0.3558   0.0862    0.643     H
H       0.3558   0.0862    0.857     H
O     0.356897 -0.0150511 0.1863516     O
O     0.356897 -0.0150511 0.3136516     O
C      0.35764  0.28197  0.81048     C
C      0.35872 0.5074718     0.75     C
C      0.35904  0.24997  0.81309     C
H       0.3633   0.0614    0.531     H
H       0.3633   0.0614    0.969     H
C     0.3640416  0.70244     0.75     C
C     0.3674718  0.10174  0.60164     C
C     0.3674718  0.10174  0.89844     C
O     0.368378 0.427128     0.75     O
C     0.3689317  0.67194     0.75     C
C      0.37122  0.30664     0.75     C
H       0.3716   0.7672   0.7934     H
Zn    0.37169712 0.40178012 -0.159403    Zn
Zn    0.37169712 0.40178012 0.659403    Zn
Zn    0.37169712 0.40178012 0.840603    Zn
C     0.3717016 0.3426316     0.75     C
O     0.371948 0.356897 0.6863516     O
O     0.371948 0.356897 0.8136516     O
C     0.3719516  0.08674  0.53374     C
C     0.3719516  0.08674  0.96634     C
C      0.37262  0.24004     0.75     C
H       0.3735   0.1987   0.6356     H
H       0.3735   0.1987   0.8644     H
C      0.37392  0.20494     0.75     C
C     0.3749516  0.18842  0.68172     C
C     0.3749516  0.18842  0.81832     C
C      0.37662  0.60572 0.775813     C
C     0.3780416  0.15652  0.68094     C
C     0.3780416  0.15652  0.81914     C
C      0.37942  0.14124     0.75     C
C     0.3802616  0.13962  0.60784     C
C     0.3802616  0.13962  0.89224     C
H       0.3813   0.1198     0.75     H
C      0.38132  0.57522  0.77628     C
C      0.38464  0.29755  0.68638     C
C      0.38555  0.26467  0.69089     C
C     0.3886413 0.1082718  0.47184     C
C     0.3886413 0.1082718  1.02824     C
O     0.388938 0.0590911 0.0935816     O
O     0.388938 0.0590911 0.4064216     O
O     0.3918011 0.513711     0.75     O
H       0.3925   0.3125   0.6429     H
H       0.3929   0.6756     0.75     H
C      0.39432  0.77094 0.775813     C
C     0.3945812 0.0915817  0.40184     C
C     0.3945812 0.0915817  1.09824     C
C     0.3952718  0.16034  0.54334     C
C     0.3952718  0.16034  0.95674     C
H       0.3956   0.6284   0.7934     H
H        0.396    0.259   0.6496     H
C     0.3968116  0.74124     0.75     C
C     0.3998916  0.14564  0.47704     C
C     0.3998916  0.14564  1.02304     C
Zn    0.40178012 0.03008317 0.159403    Zn
Zn    0.40178012 0.03008317 0.340603    Zn
Zn    0.40178012 0.03008317 1.159403    Zn
Zn    0.40178012 1.03008317 0.159403    Zn
Zn    0.40178012 1.03008317 0.340603    Zn
H       0.4027   0.1855   0.5445     H
H       0.4027   0.1855   0.9555     H
H       0.4034   0.5776   0.7946     H
O     0.405768 0.1116711 0.1565016     O
O     0.405768 0.1116711 0.3435016     O
Zn    0.40887217 0.47857317    -0.25    Zn
Zn    0.40887217 0.47857317     0.75    Zn
H       0.4107   0.1609   0.4349     H
H       0.4107   0.1609   1.0651     H
O     0.416277 0.433818 -0.1015816     O
O     0.416277 0.433818 0.6015816     O
H       0.4224   0.8258   0.7946     H
C      0.42482  0.80614  0.77628     C
Zn    0.42688418 0.105483     0.25    Zn
Zn    0.42688418 0.105483     1.25    Zn
O     0.427128 0.0587512     0.25     O
C      0.43102  0.74804  0.71707     C
H       0.4326   0.7285   0.6947     H
O     0.433818 0.0175411 0.1015816     O
O     0.433818 0.0175411 0.3984216     O
H       0.4387  -0.0155  -0.0124     H
H       0.4387   0.9845   0.5124     H
C     0.4402211 0.4676413 -0.10954     C
C     0.4402211 0.4676413  0.60954     C
O     0.440367 0.488348 -0.1617217     O
O     0.440367 0.488348 0.6617217     O
H       0.4542   0.4387   0.0124     H
H       0.4542   0.4387   0.4876     H
C     0.4584516  0.81274     0.75     C
C      0.46142  0.78304  0.71787     C
C     0.4639412 -0.0088718 -0.00734     C
C     0.4639412 0.9911318  0.50734     C
H       0.4646  -0.0377  -0.0989     H
H       0.4646   0.9623   0.5989     H
C     0.4676413 0.0274218  0.10954     C
C     0.4676413 1.0274218  0.39054     C
C     0.4712511 0.4843812 -0.05244     C
C     0.4712511 0.4843812  0.55244     C
C     0.4728113 0.4639412  0.00734     C
C     0.4728113 0.4639412  0.49274     C
O     0.4765111 0.1464616     0.25     O
Zn    0.47857317 0.069703     0.25    Zn
Zn    0.47857317 1.069703     0.25    Zn
C     0.4789813 -0.02272 -0.05894     C
C     0.4789813  0.97732  0.55894     C
H       0.4838   0.7871   0.6974     H
C     0.4843812 0.0131317  0.05244     C
C     0.4843812 1.0131317  0.44764     C
O     0.486291 0.8780916     0.75     O
O     0.488348 0.0479811 0.1617217     O
O     0.488348 0.0479811 0.3382817     O
C     0.4925318  0.85134     0.75     C
H       0.4977   0.5354  -0.0989     H
H       0.4977   0.5354   0.5989     H
C     0.4983614 0.5210213 -0.05894     C
C     0.4983614 0.5210213  0.55894     C
C     0.5016414 0.4789813  0.05894     C
C     0.5016414 0.4789813  0.44114     C
H       0.5023   0.4646   0.0989     H
H       0.5023   0.4646   0.4011     H
C     0.5074718  0.14874     0.25     C
O     0.511668 -0.0479811 -0.1617217     O
O     0.511668 0.9520211 0.6617217     O
O     0.513711 0.1219116     0.25     O
C     0.5156212 -0.0131317 -0.05244     C
C     0.5156212 0.9868717  0.55244     C
H       0.5162   0.2129   0.1974     H
C     0.5210213  0.02272  0.05894     C
C     0.5210213  1.02272  0.44114     C
Zn    0.52142717 -0.069703    -0.25    Zn
Zn    0.52142717 0.930303     0.75    Zn
O     0.5234911 0.8535416     0.75     O
C     0.5271913 0.5360612 -0.00734     C
C     0.5271913 0.5360612  0.50734     C
C     0.5287511 0.5156212  0.05244     C
C     0.5287511 0.5156212  0.44764     C
C     0.5323613 -0.0274218 -0.10954     C
C     0.5323613 0.9725818  0.60954     C
H       0.5354   0.0377   0.0989     H
H       0.5354   1.0377   0.4011     H
C     0.5360612 0.0088718  0.00734     C
C     0.5360612 1.0088718  0.49274     C
C      0.53862  0.21704  0.21787     C
C     0.5415516  0.18734     0.25     C
H       0.5458   0.5613  -0.0124     H
H       0.5458   0.5613   0.5124     H
O     0.559647 0.511668 0.1617217     O
O     0.559647 0.511668 0.3382817     O
C     0.5597811 0.5323613  0.10954     C
C     0.5597811 0.5323613  0.39054     C
H       0.5613   0.0155   0.0124     H
H       0.5613   1.0155   0.4876     H
O     0.566198 -0.0175411 -0.1015816     O
O     0.566198 0.9824611 0.6015816     O
H       0.5674   0.2715   0.1947     H
C      0.56902  0.25204  0.21707     C
O     0.572888 0.9412512     0.75     O
Zn    0.57311618 0.894523    -0.25    Zn
Zn    0.57311618 0.894523     0.75    Zn
C      0.57522  0.19394  0.27628     C
H       0.5776   0.1742   0.2946     H
O     0.583737 0.566198 0.1015816     O
O     0.583737 0.566198 0.3984216     O
H       0.5893   0.8391  -0.0651     H
H       0.5893   0.8391   0.5651     H
Zn    0.59112817 0.52142717     0.25    Zn
O     0.594248 0.8883311 -0.1565016     O
O     0.594248 0.8883311 0.6565016     O
H       0.5966   0.4224   0.2054     H
H       0.5973   0.8145   0.0445     H
H       0.5973   0.8145   0.4555     H
Zn    0.59822012 -0.03008317 -0.159403    Zn
Zn    0.59822012 -0.03008317 0.659403    Zn
Zn    0.59822012 -0.03008317 0.840603    Zn
Zn    0.59822012 0.96991717 -0.159403    Zn
Zn    0.59822012 0.96991717 0.659403    Zn
Zn    0.59822012 0.96991717 0.840603    Zn
C     0.6001116  0.85444 -0.02304     C
C     0.6001116  0.85444  0.52304     C
C     0.6031916  0.25894     0.25     C
H        0.604    0.741   0.3504     H
H       0.6044   0.3716   0.2066     H
C     0.6047318  0.83974  0.04334     C
C     0.6047318  0.83974  0.45674     C
C     0.6054212 0.9084217 -0.09824     C
C     0.6054212 0.9084217  0.59824     C
C      0.60572  0.22914 0.275813     C
H       0.6071   0.3244     0.25     H
H       0.6075   0.6875   0.3571     H
O     0.6082011 0.486291     0.25     O
O     0.611078 0.9409111 -0.0935816     O
O     0.611078 0.9409111 0.5935816     O
C     0.6113613 0.8917318 -0.02824     C
C     0.6113613 0.8917318  0.52824     C
C      0.61455  0.73547  0.30929     C
C      0.61544  0.70255  0.31378     C
H       0.6187   0.8802     0.25     H
C      0.61872  0.42482  0.22388     C
C     0.6197416  0.86042  0.10784     C
C     0.6197416  0.86042  0.39224     C
C      0.62062  0.85884     0.25     C
C     0.6219616  0.84352  0.18094     C
C     0.6219616  0.84352  0.31914     C
C      0.62342  0.39432 0.224213     C
C     0.6250516  0.81162  0.18172     C
C     0.6250516  0.81162  0.31832     C
C      0.62612  0.79514     0.25     C
H       0.6265   0.8013   0.1356     H
H       0.6265   0.8013   0.3644     H
C      0.62742  0.76004     0.25     C
C     0.6280516  0.91334  0.03374     C
C     0.6280516  0.91334  0.46634     C
O     0.628068 0.643117 0.1863516     O
O     0.628068 0.643117 0.3136516     O
C     0.6283016 0.6573716     0.25     C
Zn    0.62830312 0.59822012 0.159403    Zn
Zn    0.62830312 0.59822012 0.340603    Zn
Zn    0.62830312 0.59822012 1.159403    Zn
H       0.6284   0.2328   0.2934     H
C      0.62882  0.69344     0.25     C
C     0.6310717  0.32814     0.25     C
O     0.631638 0.572888     0.25     O
C     0.6325318  0.89834  0.10164     C
C     0.6325318  0.89834  0.39844     C
C     0.6359616  0.29764     0.25     C
H       0.6367   0.9386    0.031     H
H       0.6367   0.9386    0.469     H
C      0.64104  0.75017  0.18709     C
C      0.64132 0.4925318     0.25     C
C      0.64244  0.71817  0.18968     C
O     0.643117 0.0150511 0.6863516     O
O     0.643117 0.0150511 0.8136516     O
H       0.6442   0.9138    0.143     H
H       0.6442   0.9138    0.357     H
C     0.6457916 0.4584516     0.25     C
H        0.649   0.7652   0.1437     H
H       0.6532   0.7127   0.1487     H
C     0.6556617 0.3968116     0.25     C
C     0.6573716  0.02914     0.75     C
C     0.6616116 0.3640416     0.25     C
O     0.6699511 0.5234911     0.25     O
O     0.670167 0.611078 0.0935816     O
O     0.670167 0.611078 0.4064216     O
C      0.67194 0.3029416     0.25     C
H       0.6756   0.2827     0.25     H
C      0.67842  0.46142  0.28227     C
Zn    0.67859717 0.57311618     0.25    Zn
Zn    0.67859717 0.57311618     1.25    Zn
C      0.68302  0.43102  0.28307     C
H       0.6875     0.08   0.8571     H
C      0.69344 0.0645716     0.75     C
H       0.6967   0.4838   0.3026     H
C     0.6970011 0.6054212  0.40184     C
C     0.6970011 0.6054212  1.09824     C
C     0.6970616 0.3689317     0.25     C
H       0.6981   0.6367    0.531     H
H       0.6981   0.6367    0.969     H
C      0.70244 0.3383916     0.25     C
C      0.70255  0.08714  0.81378     C
H       0.7041   0.4326   0.3053     H
O     0.705917 0.594248 0.1565016     O
O     0.705917 0.594248 0.3435016     O
H       0.7127   0.0595   0.6487     H
C     0.7147813 0.6280516  0.53374     C
C     0.7147813 0.6280516  0.96634     C
H       0.7173   0.3929     0.25     H
C      0.71817  0.07574  0.68968     C
C     0.7196311 0.6113613  0.47184     C
C     0.7196311 0.6113613  1.02824     C
H       0.7285   0.2959   0.3053     H
H       0.7304   0.6442    0.643     H
H       0.7304   0.6442    0.857     H
C     0.7342514 0.6325318  0.60164     C
C     0.7342514 0.6325318  0.89844     C
C      0.73547  0.12094  0.80929     C
H       0.7385   0.6187     0.75     H
H        0.741    0.137   0.8504     H
C      0.74124 0.3443417     0.25     C
C     0.7457313 0.6001116  0.47704     C
C     0.7457313 0.6001116  1.02304     C
C      0.74804  0.31702  0.28307     C
C      0.75017  0.10914  0.68709     C
H       0.7502   0.5893   0.4349     H
H       0.7502   0.5893   1.0651     H
C     0.7593112 0.6197416  0.60784     C
C     0.7593112 0.6197416  0.89224     C
C      0.76004 0.1325918     0.75     C
C     0.7618218  0.62062     0.75     C
C     0.7650414 0.6047318  0.54334     C
C     0.7650414 0.6047318  0.95674     C
H       0.7652   0.1162   0.6437     H
H       0.7672   0.3956   0.2066     H
C      0.77094  0.37662 0.224213     C
C     0.7784312 0.6219616  0.68094     C
C     0.7784312 0.6219616  0.81914     C
H       0.7828   0.5973   0.5445     H
H       0.7828   0.5973   0.9555     H
C      0.78304  0.32162  0.28227     C
H       0.7871   0.3033   0.3026     H
C      0.79514 0.1689717     0.75     C
H       0.8013   0.1748   0.6356     H
H       0.8013   0.1748   0.8644     H
C      0.80614  0.38132  0.22388     C
C      0.81162 0.1865912  0.68172     C
C      0.81162 0.1865912  0.81832     C
C      0.81274 0.3542116     0.25     C
C     0.8134112 0.6250516  0.68172     C
C     0.8134112 0.6250516  0.81832     C
H       0.8145   0.2172   0.5445     H
H       0.8145   0.2172   0.9555     H
H       0.8252   0.6265   0.6356     H
H       0.8252   0.6265   0.8644     H
H       0.8258   0.4034   0.2054     H
C     0.8310317  0.62612     0.75     C
H       0.8391   0.2498   0.4349     H
H       0.8391   0.2498   1.0651     H
C      0.83974 0.2349614  0.54334     C
C      0.83974 0.2349614  0.95674     C
C      0.84352 0.2215712  0.68094     C
C      0.84352 0.2215712  0.81914     C
C      0.85134  0.35872     0.25     C
O     0.8535416 0.3300511     0.25     O
C      0.85444 0.2542713  0.47704     C
C      0.85444 0.2542713  1.02304     C
C      0.85884 0.2381818     0.75     C
C      0.86042 0.2406912  0.60784     C
C      0.86042 0.2406912  0.89224     C
H        0.863    0.604   0.8504     H
C     0.8674118  0.62742     0.75     C
O     0.8780916 0.3918011     0.25     O
C      0.87914  0.61455  0.80929     C
H       0.8802   0.2615     0.75     H
H       0.8838    0.649   0.6437     H
O     0.8883311 0.294097 0.1565016     O
O     0.8883311 0.294097 0.3435016     O
C      0.89094  0.64104  0.68709     C
C     0.8917318 0.2803711  0.47184     C
C     0.8917318 0.2803711  1.02824     C
Zn    0.894523 0.32140317     0.25    Zn
Zn    0.894523 0.32140317     1.25    Zn
C      0.89834 0.2657514  0.60164     C
C      0.89834 0.2657514  0.89844     C
C     0.9084217 0.3030011  0.40184     C
C     0.9084217 0.3030011  1.09824     C
C      0.91294  0.61544  0.81378     C
C      0.91334 0.2852213  0.53374     C
C      0.91334 0.2852213  0.96634     C
H       0.9138   0.2696    0.643     H
H       0.9138   0.2696    0.857     H
H         0.92   0.6075   0.8571     H
C      0.92434  0.64244  0.68968     C
Zn    0.930303 0.40887217     0.25    Zn
C     0.9354316  0.62882     0.75     C
H       0.9386   0.3019    0.531     H
H       0.9386   0.3019    0.969     H
H       0.9405   0.6532   0.6487     H
O     0.9409111 0.329847 0.0935816     O
O     0.9409111 0.329847 0.4064216     O
O     0.9412512 0.368378     0.25     O
O     0.9520211 0.440367 0.1617217     O
H       0.9623   0.4977   0.0989     H
Zn    0.96991717 0.37169712 0.159403    Zn
Zn    0.96991717 0.37169712 0.340603    Zn
Zn    0.96991717 0.37169712 1.159403    Zn
C      0.97094 0.6283016     0.75     C
C     0.9725818 0.4402211  0.10954     C
C      0.97732 0.4983614  0.05894     C
O     0.9824611 0.416277 0.1015816     O
H       0.9845   0.5458   0.0124     H
C     0.9868717 0.4712511  0.05244     C
C     0.9911318 0.5271913  0.00734     C
C     1.0088718 0.4728113 -0.00734     C
C     1.0131317 0.5287511 -0.05244     C
H       1.0155   0.4542  -0.0124     H
C      1.02272 0.5016414 -0.05894     C
C     1.0274218 0.5597811 -0.10954     C
Zn    1.03008317 0.62830312 -0.159403    Zn
Zn    1.03008317 0.62830312 0.659403    Zn
Zn    1.03008317 0.62830312 0.840603    Zn
H       1.0377   0.5023  -0.0989     H
Zn    1.069703 0.59112817    -0.25    Zn
