data_I
_chemical_name_common  '/home/zhangsd/repos/MofS-CGCNN/ML/data/WS24/clean_cifs/UMCM-150'
_cell_length_a 18.35321
_cell_length_b 18.35321
_cell_length_c 40.66730
_cell_angle_alpha 90.00000
_cell_angle_beta  90.00000
_cell_angle_gamma 120.00000
_space_group_name_H-M_alt      'P 1'


loop_
_space_group_symop_operation_xyz
  'x, y, z' 

loop_
_atom_site_label
_atom_site_fract_x
_atom_site_fract_y
_atom_site_fract_z
_atom_site_type_symbol
O       0.0003   0.1092  0.71124     O
O       0.0003   0.1092  0.78884     O
O       0.0003 0.891317  0.71124     O
O       0.0003 0.891317  0.78884     O
H       0.0097    0.181   0.1573     H
H       0.0097    0.181   0.3427     H
H       0.0097   0.8287   0.1573     H
H       0.0097   0.8287   0.3427     H
O      0.02513  0.43782 0.543678     O
O      0.02513  0.43782 0.956338     O
O      0.02513  0.58732 0.543678     O
O      0.02513  0.58732 0.956338     O
H       0.0313   0.2482   0.6109     H
H       0.0313   0.2482   0.8891     H
H       0.0313   0.7831   0.6109     H
H       0.0313   0.7831   0.8891     H
C       0.0482 0.205214  0.65334     C
C       0.0482 0.205214  0.84674     C
C       0.0482 0.842413  0.65334     C
C       0.0482 0.842413  0.84674     C
Cu    0.048645 0.524323 0.025592    Cu
Cu    0.048645 0.524323 0.474412    Cu
Cu    0.0573511 0.114709     0.25    Cu
Cu    0.057355 0.9426511     0.25    Cu
C       0.0723 0.252516  0.62554     C
C       0.0723 0.252516  0.87454     C
C       0.0723 0.819813  0.62554     C
C       0.0723 0.819813  0.87454     C
H       0.0729   0.3638   0.5818     H
H       0.0729   0.3638   0.9182     H
H       0.0729   0.7091   0.5818     H
H       0.0729   0.7091   0.9182     H
C      0.07564  0.15135  0.70482     C
C      0.07564  0.15135  0.79522     C
C      0.07577  0.92444  0.70482     C
C      0.07577  0.92444  0.79522     C
C      0.08846  0.44864 0.5284512     C
C      0.08846  0.44864 0.9715512     C
C      0.08846  0.63984 0.5284512     C
C      0.08846  0.63984 0.9715512     C
C      0.10264  0.20535  0.67542     C
C      0.10264  0.20535  0.82462     C
C      0.10277  0.89744  0.67542     C
C      0.10277  0.89744  0.82462     C
O     0.108717   0.1092  0.71124     O
O     0.108717   0.1092  0.78884     O
O     0.108717   1.0003  0.71124     O
O     0.108717   1.0003  0.78884     O
O       0.1092   0.0003  0.21124     O
O       0.1092   0.0003  0.28884     O
O       0.1092 0.108717  0.21124     O
O       0.1092 0.108717  0.28884     O
O      0.10933  0.48022 0.000588     O
O      0.10933  0.48022 0.499428     O
O      0.10933 0.6291418 0.000588     O
O      0.10933 0.6291418 0.499428     O
Cu    0.114709 0.057355     0.75    Cu
C      0.12436  0.37894 0.5719811     C
C      0.12436  0.37894 0.9280211     C
C      0.12436  0.74544 0.5719811     C
C      0.12436  0.74544 0.9280211     C
C      0.14476  0.42244 0.5431412     C
C      0.14476  0.42244 0.9568612     C
C      0.14476  0.72234 0.5431412     C
C      0.14476  0.72234 0.9568612     C
O      0.15066  0.57534 0.0654016     O
O      0.15066  0.57534 0.4346016     O
C      0.15135  0.07577  0.20482     C
C      0.15135  0.07577  0.29522     C
C      0.15214  0.30437  0.61842     C
C      0.15214  0.30437  0.88162     C
C      0.15229  0.84794  0.61842     C
C      0.15229  0.84794  0.88162     C
C     0.157613 0.205214  0.65334     C
C     0.157613 0.205214  0.84674     C
C     0.157613   0.9522  0.65334     C
C     0.157613   0.9522  0.84674     C
H       0.1713    0.181   0.1573     H
H       0.1713    0.181   0.3427     H
H       0.1713   0.9903   0.1573     H
H       0.1713   0.9903   0.3427     H
C      0.17806  0.82192 0.5872017     C
C      0.17806  0.82192 0.9128017     C
C      0.17812  0.35615 0.5872017     C
C      0.17812  0.35615 0.9128017     C
C     0.180213 0.252516  0.62554     C
C     0.180213 0.252516  0.87454     C
C     0.180213   0.9283  0.62554     C
C     0.180213   0.9283  0.87454     C
H        0.181   0.0097   0.6573     H
H        0.181   0.0097   0.8427     H
H        0.181   0.1713   0.6573     H
H        0.181   0.1713   0.8427     H
C     0.205214   0.0482  0.15334     C
C     0.205214   0.0482  0.34674     C
C     0.205214 0.157613  0.15334     C
C     0.205214 0.157613  0.34674     C
C      0.20535  0.10277  0.17542     C
C      0.20535  0.10277  0.32462     C
H       0.2169   0.2482   0.6109     H
H       0.2169   0.2482   0.8891     H
H       0.2169   0.9687   0.6109     H
H       0.2169   0.9687   0.8891     H
C      0.22152  0.44304 0.5292316     C
C      0.22152  0.44304 0.9707716     C
C      0.22155  0.77852 0.5292316     C
C      0.22155  0.77852 0.9707716     C
H       0.2361   0.4722   0.5094     H
H       0.2361   0.4722   0.9906     H
H       0.2361   0.7639   0.5094     H
H       0.2361   0.7639   0.9906     H
H       0.2482   0.0313   0.1109     H
H       0.2482   0.0313   0.3891     H
H       0.2482   0.2169   0.1109     H
H       0.2482   0.2169   0.3891     H
C     0.252516   0.0723  0.12554     C
C     0.252516   0.0723  0.37454     C
C     0.252516 0.180213  0.12554     C
C     0.252516 0.180213  0.37454     C
C      0.25464  0.37894 0.5719811     C
C      0.25464  0.37894 0.9280211     C
C      0.25464  0.87576 0.5719811     C
C      0.25464  0.87576 0.9280211     C
C      0.27774  0.42244 0.5431412     C
C      0.27774  0.42244 0.9568612     C
C      0.27774  0.85536 0.5431412     C
C      0.27774  0.85536 0.9568612     C
H       0.2909   0.3638   0.5818     H
H       0.2909   0.3638   0.9182     H
H       0.2909   0.9271   0.5818     H
H       0.2909   0.9271   0.9182     H
C      0.30437  0.15229  0.11842     C
C      0.30437  0.15229  0.38162     C
C      0.35615  0.17806 0.0872017     C
C      0.35615  0.17806 0.4128017     C
C      0.36024  0.44864 0.5284512     C
C      0.36024  0.44864 0.9715512     C
C      0.36024  0.91166 0.5284512     C
C      0.36024  0.91166 0.9715512     C
H       0.3638   0.0729   0.0818     H
H       0.3638   0.0729   0.4182     H
H       0.3638   0.2909   0.0818     H
H       0.3638   0.2909   0.4182     H
O     0.3708618  0.48022 0.000588     O
O     0.3708618  0.48022 0.499428     O
O     0.3708618  0.89073 0.000588     O
O     0.3708618  0.89073 0.499428     O
C      0.37894  0.12436 0.0719811     C
C      0.37894  0.12436 0.4280211     C
C      0.37894  0.25464 0.0719811     C
C      0.37894  0.25464 0.4280211     C
O      0.41272  0.43782 0.543678     O
O      0.41272  0.43782 0.956338     O
O      0.41272  0.97493 0.543678     O
O      0.41272  0.97493 0.956338     O
C      0.42244  0.14476 0.0431412     C
C      0.42244  0.14476 0.4568612     C
C      0.42244  0.27774 0.0431412     C
C      0.42244  0.27774 0.4568612     C
O      0.42474  0.57534 0.0654016     O
O      0.42474  0.57534 0.4346016     O
O      0.42474  0.84946 0.0654016     O
O      0.42474  0.84946 0.4346016     O
O      0.43782  0.02513 0.043678     O
O      0.43782  0.02513 0.456338     O
O      0.43782  0.41272 0.043678     O
O      0.43782  0.41272 0.456338     O
C      0.44304  0.22155 0.0292316     C
C      0.44304  0.22155 0.4707716     C
C      0.44864  0.08846 0.0284512     C
C      0.44864  0.08846 0.4715512     C
C      0.44864  0.36024 0.0284512     C
C      0.44864  0.36024 0.4715512     C
H       0.4722   0.2361   0.0094     H
H       0.4722   0.2361   0.4906     H
Cu    0.475683 0.524323 0.025592    Cu
Cu    0.475683 0.524323 0.474412    Cu
Cu    0.475683 0.951365 0.025592    Cu
Cu    0.475683 0.951365 0.474412    Cu
O      0.48022  0.10933 0.500588     O
O      0.48022  0.10933 0.999428     O
O      0.48022 0.3708618 0.500588     O
O      0.48022 0.3708618 0.999428     O
O      0.51982 0.6291418 0.000588     O
O      0.51982 0.6291418 0.499428     O
O      0.51982  0.89073 0.000588     O
O      0.51982  0.89073 0.499428     O
Cu    0.524323 0.048645 0.525592    Cu
Cu    0.524323 0.048645 0.974412    Cu
Cu    0.524323 0.475683 0.525592    Cu
Cu    0.524323 0.475683 0.974412    Cu
H       0.5278   0.7639   0.5094     H
H       0.5278   0.7639   0.9906     H
C      0.55144  0.63984 0.5284512     C
C      0.55144  0.63984 0.9715512     C
C      0.55144  0.91166 0.5284512     C
C      0.55144  0.91166 0.9715512     C
C      0.55704  0.77855 0.5292316     C
C      0.55704  0.77855 0.9707716     C
O      0.56222  0.58732 0.543678     O
O      0.56222  0.58732 0.956338     O
O      0.56222  0.97493 0.543678     O
O      0.56222  0.97493 0.956338     O
O      0.57534  0.15066 0.5654016     O
O      0.57534  0.15066 0.9346016     O
O      0.57534  0.42474 0.5654016     O
O      0.57534  0.42474 0.9346016     O
C      0.57764  0.72234 0.5431412     C
C      0.57764  0.72234 0.9568612     C
C      0.57764  0.85536 0.5431412     C
C      0.57764  0.85536 0.9568612     C
O      0.58732  0.02513 0.043678     O
O      0.58732  0.02513 0.456338     O
O      0.58732  0.56222 0.043678     O
O      0.58732  0.56222 0.456338     O
C      0.62114  0.74544 0.5719811     C
C      0.62114  0.74544 0.9280211     C
C      0.62114  0.87576 0.5719811     C
C      0.62114  0.87576 0.9280211     C
O     0.6291418  0.10933 0.500588     O
O     0.6291418  0.10933 0.999428     O
O     0.6291418  0.51982 0.500588     O
O     0.6291418  0.51982 0.999428     O
H       0.6362   0.7091   0.5818     H
H       0.6362   0.7091   0.9182     H
H       0.6362   0.9271   0.5818     H
H       0.6362   0.9271   0.9182     H
C      0.63984  0.08846 0.0284512     C
C      0.63984  0.08846 0.4715512     C
C      0.63984  0.55144 0.0284512     C
C      0.63984  0.55144 0.4715512     C
C      0.64395  0.82206 0.5872017     C
C      0.64395  0.82206 0.9128017     C
C      0.69577  0.84789  0.61842     C
C      0.69577  0.84789  0.88162     C
H       0.7091   0.0729   0.0818     H
H       0.7091   0.0729   0.4182     H
H       0.7091   0.6362   0.0818     H
H       0.7091   0.6362   0.4182     H
C      0.72234  0.14476 0.0431412     C
C      0.72234  0.14476 0.4568612     C
C      0.72234  0.57764 0.0431412     C
C      0.72234  0.57764 0.4568612     C
C      0.74544  0.12436 0.0719811     C
C      0.74544  0.12436 0.4280211     C
C      0.74544  0.62114 0.0719811     C
C      0.74544  0.62114 0.4280211     C
C     0.747516 0.819813  0.62554     C
C     0.747516 0.819813  0.87454     C
C     0.747516   0.9283  0.62554     C
C     0.747516   0.9283  0.87454     C
H       0.7518   0.7831   0.6109     H
H       0.7518   0.7831   0.8891     H
H       0.7518   0.9687   0.6109     H
H       0.7518   0.9687   0.8891     H
H       0.7639   0.2361   0.0094     H
H       0.7639   0.2361   0.4906     H
H       0.7639   0.5278   0.0094     H
H       0.7639   0.5278   0.4906     H
C      0.77852  0.55704 0.0292316     C
C      0.77852  0.55704 0.4707716     C
C      0.77855  0.22152 0.0292316     C
C      0.77855  0.22152 0.4707716     C
H       0.7831   0.0313   0.1109     H
H       0.7831   0.0313   0.3891     H
H       0.7831   0.7518   0.1109     H
H       0.7831   0.7518   0.3891     H
C      0.79475  0.89737  0.67542     C
C      0.79475  0.89737  0.82462     C
C     0.794814 0.842413  0.65334     C
C     0.794814 0.842413  0.84674     C
C     0.794814   0.9522  0.65334     C
C     0.794814   0.9522  0.84674     C
H        0.819   0.8287   0.1573     H
H        0.819   0.8287   0.3427     H
H        0.819   0.9903   0.1573     H
H        0.819   0.9903   0.3427     H
C     0.819813   0.0723  0.12554     C
C     0.819813   0.0723  0.37454     C
C     0.819813 0.747516  0.12554     C
C     0.819813 0.747516  0.37454     C
C      0.82192  0.64395 0.0872017     C
C      0.82192  0.64395 0.4128017     C
C      0.82206  0.17812 0.0872017     C
C      0.82206  0.17812 0.4128017     C
H       0.8287   0.0097   0.6573     H
H       0.8287   0.0097   0.8427     H
H       0.8287    0.819   0.6573     H
H       0.8287    0.819   0.8427     H
C     0.842413   0.0482  0.15334     C
C     0.842413   0.0482  0.34674     C
C     0.842413 0.794814  0.15334     C
C     0.842413 0.794814  0.34674     C
C      0.84789  0.15214  0.11842     C
C      0.84789  0.15214  0.38162     C
C      0.84794  0.69577  0.11842     C
C      0.84794  0.69577  0.38162     C
C      0.84875  0.92437  0.70482     C
C      0.84875  0.92437  0.79522     C
O      0.84946  0.42474 0.5654016     O
O      0.84946  0.42474 0.9346016     O
C      0.85536  0.27774 0.0431412     C
C      0.85536  0.27774 0.4568612     C
C      0.85536  0.57764 0.0431412     C
C      0.85536  0.57764 0.4568612     C
C      0.87576  0.25464 0.0719811     C
C      0.87576  0.25464 0.4280211     C
C      0.87576  0.62114 0.0719811     C
C      0.87576  0.62114 0.4280211     C
Cu    0.885309 0.942655     0.25    Cu
O      0.89073 0.3708618 0.500588     O
O      0.89073 0.3708618 0.999428     O
O      0.89073  0.51982 0.500588     O
O      0.89073  0.51982 0.999428     O
O       0.8912 0.891317  0.71124     O
O       0.8912 0.891317  0.78884     O
O       0.8912   1.0003  0.71124     O
O       0.8912   1.0003  0.78884     O
O     0.891317   0.0003  0.21124     O
O     0.891317   0.0003  0.28884     O
O     0.891317   0.8912  0.21124     O
O     0.891317   0.8912  0.28884     O
C      0.89737  0.10264  0.17542     C
C      0.89737  0.10264  0.32462     C
C      0.89744  0.79475  0.17542     C
C      0.89744  0.79475  0.32462     C
C      0.91166  0.36024 0.0284512     C
C      0.91166  0.36024 0.4715512     C
C      0.91166  0.55144 0.0284512     C
C      0.91166  0.55144 0.4715512     C
C      0.92437  0.07564  0.20482     C
C      0.92437  0.07564  0.29522     C
C      0.92444  0.84875  0.20482     C
C      0.92444  0.84875  0.29522     C
H       0.9271   0.2909   0.0818     H
H       0.9271   0.2909   0.4182     H
H       0.9271   0.6362   0.0818     H
H       0.9271   0.6362   0.4182     H
C       0.9283 0.180213  0.12554     C
C       0.9283 0.180213  0.37454     C
C       0.9283 0.747516  0.12554     C
C       0.9283 0.747516  0.37454     C
Cu    0.9426511 0.885309     0.75    Cu
Cu    0.942655 0.0573511     0.75    Cu
Cu    0.951365 0.475683 0.525592    Cu
Cu    0.951365 0.475683 0.974412    Cu
C       0.9522 0.157613  0.15334     C
C       0.9522 0.157613  0.34674     C
C       0.9522 0.794814  0.15334     C
C       0.9522 0.794814  0.34674     C
H       0.9687   0.2169   0.1109     H
H       0.9687   0.2169   0.3891     H
H       0.9687   0.7518   0.1109     H
H       0.9687   0.7518   0.3891     H
O      0.97493  0.41272 0.043678     O
O      0.97493  0.41272 0.456338     O
O      0.97493  0.56222 0.043678     O
O      0.97493  0.56222 0.456338     O
H       0.9903   0.1713   0.6573     H
H       0.9903   0.1713   0.8427     H
H       0.9903    0.819   0.6573     H
H       0.9903    0.819   0.8427     H
O       1.0003 0.108717  0.21124     O
O       1.0003 0.108717  0.28884     O
O       1.0003   0.8912  0.21124     O
O       1.0003   0.8912  0.28884     O
