data_I
_chemical_name_common  '/home/zhangsd/repos/MofS-CGCNN/ML/data/WS24/clean_cifs/UNABOB'
_cell_length_a 13.28100
_cell_length_b 15.29205
_cell_length_c 20.35600
_cell_angle_alpha 96.32958
_cell_angle_beta  90.00000
_cell_angle_gamma 115.73727
_space_group_name_H-M_alt      'P 1'


loop_
_space_group_symop_operation_xyz
  'x, y, z' 

loop_
_atom_site_label
_atom_site_fract_x
_atom_site_fract_y
_atom_site_fract_z
_atom_site_type_symbol
C       0.0047   0.6084   0.4812     C
C       0.0085   0.6276   0.9704     C
C       0.0099   0.3832   0.9665     C
C       0.0206   0.5478   0.3172     C
C       0.0321   0.3678    0.458     C
C       0.0491   0.6608   0.0111     C
C       0.0495    0.414   0.1434     C
H         0.05   0.4312   0.5529     H
C       0.0525   0.4172    0.996     C
N       0.0605   0.4966   0.7156     N
C       0.0681    0.658   0.1423     C
C       0.0822   0.6766   0.0874     C
H       0.1063   0.5188   0.1984     H
N       0.1112   0.6378   0.4687     N
H       0.1228    0.681   0.2376     H
C       0.1346   0.4682   0.1882     C
C       0.1456   0.7016   0.1955     C
Cu     0.16021  0.61928  0.36923    Cu
C       0.1607   0.7198     0.58     C
C       0.1883   0.6926   0.5174     C
C       0.2053   0.5146   0.0647     C
C        0.208   0.7624   0.0761     C
Cu     0.20864  0.57624  0.76046    Cu
H       0.2317    0.472   0.5453     H
N       0.2386   0.5348   0.1831     N
H       0.2403    0.472   0.0453     H
N         0.25   0.7704   0.1919     N
H       0.2606   0.6064   0.6198     H
H       0.2651   0.7136   0.5088     H
S      0.26623  0.74126  0.76608     S
S      0.26639     0.55  0.85948     S
S      0.26728   0.7848  0.36395     S
C       0.2717   0.5574   0.1231     C
C       0.2804   0.8002   0.1325     C
S      0.28361     0.55  0.35948     S
C       0.2857   0.5574   0.6231     C
N       0.2962   0.5348   0.6831     N
C       0.3093   0.5146   0.5647     C
Mo     0.32829  0.71372  0.86109    Mo
C       0.3336   0.4682   0.6882     C
C       0.3357   0.3678    0.958     C
H       0.3458   0.6064   0.1198     H
C       0.3473    0.459   0.5601     C
H       0.3542   0.8488   0.1286     H
C       0.3647   0.4172    0.496     C
Cu     0.36637  0.82378   0.2715    Cu
Cu      0.3676  0.57624  0.26046    Cu
C       0.3733   0.3832   0.4665     C
C       0.3809   0.3724   0.5296     C
H       0.3812   0.4312   0.0529     H
Mo     0.38543  0.71372  0.36109    Mo
C       0.3883   0.3392   0.4889     C
C       0.3963   0.3916   0.0188     C
C       0.4056   0.3234   0.4126     C
C       0.4101    0.342   0.3577     C
H       0.4125   0.5188   0.6984     H
N       0.4361   0.4966   0.2156     N
N       0.4407   0.9618   0.2575     N
C       0.4409   0.2802     0.92     C
H       0.4418    0.319   0.2624     H
C        0.444   0.2984   0.3045     C
C       0.4456   0.2376   0.4239     C
H       0.4485   0.7136   0.0088     H
Cu     0.45741  0.82378   0.7715    Cu
Cu     0.45907  0.61928  0.86923    Cu
C       0.4728   0.4522   0.1828     C
N       0.4734   0.3622   0.0313     N
S      0.47503  0.74126  0.26608     S
N       0.4789   0.0382   0.2425     N
N       0.4796   0.2296   0.3081     N
C       0.4802   0.1998   0.3675     C
S      0.48248   0.2152  0.13605     S
H       0.4946   0.8488   0.6286     H
C       0.4957   0.3074   0.9826     C
C       0.5036    0.959   0.7558     C
C       0.5043   0.6926   0.0174     C
H       0.5054   0.1512   0.3714     H
S      0.51752   0.7848  0.86395     S
C       0.5198   0.8002   0.6325     C
N       0.5204   0.7704   0.6919     N
S      0.52497  0.25874  0.73392     S
N       0.5266   0.6378   0.9687     N
C       0.5272   0.5478   0.8172     C
Cu     0.54093  0.38072  0.13077    Cu
Cu     0.54259  0.17622   0.2285    Cu
C       0.5446    0.041   0.7442     C
H       0.5515   0.2864   0.9912     H
C       0.5544   0.7624   0.5761     C
C        0.556   0.7016   0.6955     C
H       0.5582    0.681   0.7376     H
C       0.5591   0.7198     0.08     C
N       0.5639   0.5034   0.7844     N
C       0.5829   0.7072   0.5745     C
H       0.5875   0.4812   0.3016     H
C       0.5899    0.658   0.6423     C
C       0.6037   0.6084   0.9812     C
C       0.6117   0.6608   0.5111     C
Mo     0.61457  0.28628  0.63891    Mo
H       0.6188   0.5688   0.9471     H
C       0.6191   0.6276   0.4704     C
C       0.6267   0.6168   0.5335     C
Cu      0.6324  0.42376  0.73954    Cu
Cu     0.63363  0.17622   0.7285    Cu
C       0.6353   0.5828    0.504     C
C       0.6355    0.586   0.3566     C
H       0.6458   0.1512   0.8714     H
H       0.6542   0.3936   0.8802     H
C       0.6643   0.6322    0.042     C
C       0.6664   0.5318   0.3118     C
Mo     0.67171  0.28628  0.13891    Mo
C       0.6907   0.4854   0.4353     C
N       0.7038   0.4652   0.3169     N
C       0.7143   0.4426   0.3769     C
S      0.71639     0.45  0.64052     S
C       0.7196   0.1998   0.8675     C
C       0.7283   0.4426   0.8769     C
S      0.73272   0.2152  0.63605     S
S      0.73361     0.45  0.14052     S
S      0.73377  0.25874  0.23392     S
H       0.7349   0.2864   0.4912     H
H       0.7394   0.3936   0.3802     H
N         0.75   0.2296   0.8081     N
H       0.7597    0.528   0.9547     H
N       0.7614   0.4652   0.8169     N
H       0.7683    0.528   0.4547     H
Cu     0.79136  0.42376  0.23954    Cu
C        0.792   0.2376   0.9239     C
C       0.7947   0.4854   0.9353     C
C       0.8117   0.3074   0.4826     C
C       0.8393   0.2802     0.42     C
Cu     0.83979  0.38072  0.63077    Cu
C       0.8544   0.2984   0.8045     C
C       0.8654   0.5318   0.8118     C
C       0.8757   0.2928   0.9255     C
H       0.8772    0.319   0.7624     H
C       0.8883    0.541   0.9399     C
N       0.8888   0.3622   0.5313     N
H       0.8937   0.4812   0.8016     H
C       0.9319    0.342   0.8577     C
N       0.9395   0.5034   0.2844     N
C       0.9475   0.5828    0.004     C
H         0.95   0.5688   0.4471     H
C       0.9509   0.3392   0.9889     C
C       0.9679   0.6322    0.542     C
C       0.9794   0.4522   0.6828     C
C       0.9901   0.6168   0.0335     C
C       0.9915   0.3724   0.0296     C
C       0.9953   0.3916   0.5188     C
