data_I
_chemical_name_common  '/home/zhangsd/repos/MofS-CGCNN/ML/data/WS24/clean_cifs/UNABIV'
_cell_length_a 13.76190
_cell_length_b 15.39490
_cell_length_c 17.35000
_cell_angle_alpha 98.34770
_cell_angle_beta  90.00000
_cell_angle_gamma 116.54900
_space_group_name_H-M_alt      'P 1'


loop_
_space_group_symop_operation_xyz
  'x, y, z' 

loop_
_atom_site_label
_atom_site_fract_x
_atom_site_fract_y
_atom_site_fract_z
_atom_site_type_symbol
C       0.0016   0.7014   0.1454     C
C       0.0017   0.4014   0.6118     C
C       0.0127   0.6306   0.6089     C
C       0.0203   0.2636   0.7763     C
C       0.0353   0.4104   0.5368     C
C       0.0361   0.8226   0.3548     C
C       0.0392   0.3394   0.9942     C
C       0.0407    0.649    0.534     C
C       0.0437   0.4508   0.1848     C
N       0.0438   0.6374   0.9934     N
H        0.051   0.4506    0.724     H
H       0.0519    0.267   0.1711     H
H       0.0558   0.4182   0.3836     H
C       0.0623   0.7924   0.2819     C
H       0.0625   0.6712   0.7211     H
C       0.0628   0.3086    0.921     C
N       0.0632   0.1966   0.6272     N
H       0.0695   0.6418   0.3802     H
C       0.0751   0.4572   0.6741     C
H        0.083   0.3446   0.0372     H
C       0.0853    0.684   0.6717     C
C       0.0867   0.6778   0.1325     C
Cu     0.09207  0.62202  0.87788    Cu
H       0.0926   0.8588   0.3932     H
C       0.1033   0.6456   0.0576     C
C       0.1074   0.2512   0.1827     C
H       0.1215   0.2942   0.9157     H
C       0.1247   0.2854   0.7576     C
N       0.1266    0.498   0.2214     N
H       0.1328   0.6836   0.1742     H
N       0.1334   0.1966   0.1272     N
H       0.1345   0.8094   0.2722     H
H       0.1401   0.3228   0.2947     H
C       0.1428   0.4766   0.5295     C
C       0.1438   0.2512   0.6827     C
C       0.1446   0.7224   0.5278     C
H         0.16   0.6286   0.0512     H
C       0.1607   0.2854   0.2576     C
H       0.1678   0.7386   0.4792     H
H       0.1697    0.485   0.4805     H
H       0.1727   0.2942   0.4157     H
N       0.1783   0.5202   0.6681     N
H       0.1827   0.3228   0.7947     H
N       0.1859   0.7528   0.6673     N
S      0.19504  0.78764  0.87177     S
C       0.2086   0.5296   0.5965     C
S      0.21164  0.55586  0.87523     S
C       0.2135   0.1774   0.1452     C
C       0.2139   0.7718   0.5949     C
H       0.2151    0.267   0.6711     H
H       0.2338   0.1412   0.1068     H
C       0.2433   0.2636   0.2763     C
C       0.2458   0.3086    0.421     C
H       0.2616   0.3446   0.5372     H
C       0.2699   0.2076   0.2181     C
Cu     0.27643   0.5786  0.26425    Cu
H       0.2796   0.5752   0.5908     H
H       0.2834   0.8206   0.5895     H
H       0.2956   0.5752   0.0908     H
Cu     0.29704  0.82082  0.76572    Cu
C       0.3002   0.2986   0.3546     C
C       0.3002   0.3394   0.4942     C
Cu     0.30217   0.5786  0.76425    Cu
Mo     0.31051  0.72046  0.87834    Mo
H       0.3153    0.485   0.9805     H
C        0.321   0.5296   0.0965     C
H       0.3251   0.1906   0.2278     H
C       0.3338   0.4766   0.0295     C
S      0.33806  0.74462  0.27078     S
N       0.3419   0.5202   0.1681     N
S      0.34422  0.55586  0.37523     S
H       0.3624   0.4182   0.8836     H
C       0.3711   0.9642    0.757     C
N       0.3714    0.498   0.7214     N
C       0.3751   0.4104   0.0368     C
O       0.3767   0.7724   0.4617     O
C       0.3821   0.3694   0.8911     C
C       0.3821   0.4572   0.1741     C
H       0.3913   0.3288   0.7789     H
C       0.3917    0.351    0.966     C
O       0.3957   0.7724   0.9617     O
H       0.3996   0.4506    0.224     H
C       0.3997   0.4014   0.1118     C
C       0.4013    0.316   0.8283     C
N       0.4064   0.3626   0.5066     N
S      0.40656  0.74462  0.77078     S
C       0.4069   0.0358    0.743     C
C       0.4071   0.4508   0.6848     C
S       0.4074  0.21236  0.62823     S
C       0.4089   0.3222   0.3675     C
Mo     0.40995  0.72046  0.37834    Mo
C       0.4222   0.2776   0.9722     C
H       0.4277   0.3582   0.1198     H
H       0.4292   0.2614   0.0208     H
N       0.4331   0.2472   0.8327     N
C       0.4421   0.2282   0.9051     C
H       0.4492   0.3164   0.3258     H
C       0.4577   0.3544   0.4424     C
H       0.4628   0.1794   0.9105     H
H       0.4686   0.6286   0.5512     H
Cu     0.47005  0.37798  0.62212    Cu
Cu     0.47622  0.17918  0.73428    Cu
Cu     0.52378  0.82082  0.26572    Cu
Cu     0.52995  0.62202  0.37788    Cu
H       0.5314   0.3714   0.4488     H
H       0.5372   0.8206   0.0895     H
C       0.5423   0.6456   0.5576     C
H       0.5508   0.6836   0.6742     H
C       0.5579   0.7718   0.0949     C
N       0.5669   0.7528   0.1673     N
H       0.5708   0.7386   0.9792     H
H       0.5723   0.6418   0.8802     H
C       0.5778   0.7224   0.0278     C
Mo     0.59005  0.27954  0.62166    Mo
C       0.5911   0.6778   0.6325     C
S       0.5926  0.78764  0.37177     S
C       0.5929   0.5492   0.3152     C
C       0.5931   0.9642    0.257     C
S      0.59344  0.25538  0.22922     S
N       0.5936   0.6374   0.4934     N
C       0.5987    0.684   0.1717     C
C       0.6003   0.5986   0.8882     C
H       0.6004   0.5494    0.776     H
O       0.6043   0.2276   0.0383     O
C       0.6083    0.649    0.034     C
H       0.6087   0.6712   0.2211     H
C       0.6179   0.5428   0.8259     C
C       0.6179   0.6306   0.1089     C
O       0.6233   0.2276   0.5383     O
C       0.6249   0.5896   0.9632     C
N       0.6286    0.502   0.2786     N
C       0.6289   0.0358    0.243     C
H       0.6376   0.5818   0.1164     H
S      0.65578  0.44414  0.62477     S
N       0.6581   0.4798   0.8319     N
S      0.66194  0.25538  0.72922     S
C       0.6662   0.5234   0.9705     C
H       0.6749   0.8094   0.7722     H
C        0.679   0.4704   0.9035     C
H       0.6847    0.515   0.0195     H
Mo     0.68949  0.27954  0.12166    Mo
Cu     0.69783   0.4214  0.23575    Cu
C       0.6998   0.6606   0.5058     C
C       0.6998   0.7014   0.6454     C
Cu     0.70296  0.17918  0.23428    Cu
H       0.7044   0.4248   0.9092     H
H       0.7166   0.1794   0.4105     H
H       0.7204   0.4248   0.4092     H
Cu     0.72357   0.4214  0.73575    Cu
C       0.7301   0.7924   0.7819     C
H       0.7384   0.6554   0.4628     H
C       0.7542   0.6914    0.579     C
C       0.7567   0.7364   0.7237     C
H       0.7662   0.8588   0.8932     H
H       0.7849    0.733   0.3289     H
C       0.7861   0.2282   0.4051     C
C       0.7865   0.8226   0.8548     C
S      0.78836  0.44414  0.12477     S
C       0.7914   0.4704   0.4035     C
S      0.80496  0.21236  0.12823     S
N       0.8141   0.2472   0.3327     N
H       0.8173   0.6772   0.2053     H
N       0.8217   0.4798   0.3319     N
H       0.8273   0.7058   0.5843     H
H       0.8303    0.515   0.5195     H
H       0.8322   0.2614   0.5208     H
C       0.8393   0.7146   0.7424     C
H         0.84   0.3714   0.9488     H
C       0.8554   0.2776   0.4722     C
C       0.8562   0.7488   0.3173     C
C       0.8572   0.5234   0.4705     C
H       0.8599   0.6772   0.7053     H
H       0.8655   0.1906   0.7278     H
N       0.8666   0.8034   0.8728     N
H       0.8672   0.3164   0.8258     H
N       0.8734    0.502   0.7786     N
C       0.8753   0.7146   0.2424     C
H       0.8785   0.7058   0.0843     H
C       0.8926   0.7488   0.8173     C
C       0.8967   0.3544   0.9424     C
H       0.9074   0.1412   0.6068     H
Cu     0.90793  0.37798  0.12212    Cu
C       0.9133   0.3222   0.8675     C
C       0.9147    0.316   0.3283     C
H        0.917   0.6554   0.9628     H
C       0.9249   0.5428   0.3259     C
H       0.9305   0.3582   0.6198     H
N       0.9368   0.8034   0.3728     N
C       0.9372   0.6914    0.079     C
H       0.9375   0.3288   0.2789     H
C       0.9377   0.2076   0.7181     C
H       0.9442   0.5818   0.6164     H
H       0.9481    0.733   0.8289     H
H        0.949   0.5494    0.276     H
N       0.9562   0.3626   0.0066     N
C       0.9563   0.5492   0.8152     C
C       0.9593    0.351    0.466     C
C       0.9608   0.6606   0.0058     C
C       0.9639   0.1774   0.6452     C
C       0.9647   0.5896   0.4632     C
C       0.9797   0.7364   0.2237     C
C       0.9873   0.3694   0.3911     C
C       0.9983   0.5986   0.3882     C
C       0.9984   0.2986   0.8546     C
