data_I
_chemical_name_common  '/home/zhangsd/repos/MofS-CGCNN/ML/data/WS24/clean_cifs/UNINUB'
_cell_length_a  7.75190
_cell_length_b  9.23760
_cell_length_c 12.09340
_cell_angle_alpha 80.99400
_cell_angle_beta  82.03500
_cell_angle_gamma 85.37700
_space_group_name_H-M_alt      'P 1'


loop_
_space_group_symop_operation_xyz
  'x, y, z' 

loop_
_atom_site_label
_atom_site_fract_x
_atom_site_fract_y
_atom_site_fract_z
_atom_site_type_symbol
H       0.0045    0.791   0.7163     H
H       0.0124   0.8498   0.5079     H
C       0.0175   0.5662   0.2416     C
C        0.032   0.4809   0.5563     C
O       0.0414   0.2392  0.06155     O
C       0.0831   0.5314   0.3442     C
H       0.0968   0.5756   0.1761     H
C       0.1084   0.6985    0.914     C
C       0.1257   0.7879   0.7082     C
C       0.1337   0.8443   0.5007     C
N        0.151   0.4132    0.769     N
H       0.1703   0.8814   0.3311     H
O       0.1738   0.5917  0.97381     O
H       0.2027   0.5166   0.3463     H
C        0.205   0.4598   0.5682     C
C       0.2083   0.7565   0.8016     C
H       0.2145   0.0862    0.843     H
C       0.2189   0.8161    0.599     C
C       0.2275   0.8636    0.395     C
Cd     0.25346    0.349 0.940917    Cd
C       0.2609   0.4266   0.6731     C
H       0.2872   0.4681   0.5041     H
O       0.2884   0.1184  0.87759     O
H         0.34    0.045   0.9137     H
H       0.3801   0.4128   0.6773     H
H       0.3819    0.168   0.5311     H
O       0.3865   0.3439  0.09636     O
H       0.3936   0.2172    0.321     H
C       0.3937   0.7586   0.7915     C
C       0.4024   0.8093   0.5883     C
C       0.4092   0.8564   0.3845     C
H       0.4239   0.6797     0.11     H
O       0.4258   0.8298  0.96656     O
H       0.4481   0.5206   0.1435     H
O       0.4613   0.6087   0.1555     O
H       0.4726   0.8677   0.3128     H
C       0.4827    0.747   0.8952     C
C       0.4853   0.7833   0.6861     C
C       0.4969   0.8327   0.4779     C
C       0.5031   0.1673   0.5221     C
C       0.5147   0.2167   0.3139     C
C       0.5173    0.253   0.1048     C
H       0.5274   0.1323   0.6872     H
O       0.5387   0.3913   0.8445     O
H       0.5519   0.4794   0.8565     H
O       0.5742   0.1702  0.03344     O
H       0.5761   0.3203     0.89     H
C       0.5908   0.1436   0.6155     C
C       0.5976   0.1907   0.4117     C
C       0.6063   0.2414   0.2085     C
H       0.6064   0.7828    0.679     H
O       0.6135   0.6561  0.90364     O
H       0.6181    0.832   0.4689     H
H       0.6199   0.5872   0.3227     H
H         0.66    0.955   0.0863     H
O       0.7116   0.8816  0.12241     O
H       0.7128   0.5319   0.4959     H
C       0.7391   0.5734   0.3269     C
Cd     0.74654    0.651 0.059083    Cd
C       0.7725   0.1364    0.605     C
C       0.7811   0.1839    0.401     C
H       0.7855   0.9138    0.157     H
C       0.7917   0.2435   0.1984     C
C        0.795   0.5402   0.4318     C
H       0.7973   0.4834   0.6537     H
O       0.8262   0.4083  0.02619     O
H       0.8297   0.1186   0.6689     H
N        0.849   0.5868    0.231     N
C       0.8663   0.1557   0.4993     C
C       0.8743   0.2121   0.2918     C
C       0.8916   0.3015    0.086     C
H       0.9032   0.4244   0.8239     H
C       0.9169   0.4686   0.6558     C
O       0.9586   0.7608  0.93845     O
C        0.968   0.5191   0.4437     C
C       0.9825   0.4338   0.7584     C
H       0.9876   0.1502   0.4921     H
H       0.9955    0.209   0.2837     H
