data_I
_chemical_name_common  '/home/zhangsd/repos/MofS-CGCNN/ML/data/WS24/clean_cifs/UNINEL'
_cell_length_a  7.13430
_cell_length_b  7.30430
_cell_length_c 18.94200
_cell_angle_alpha 90.00000
_cell_angle_beta  94.01300
_cell_angle_gamma 90.00000
_space_group_name_H-M_alt      'P 1'


loop_
_space_group_symop_operation_xyz
  'x, y, z' 

loop_
_atom_site_label
_atom_site_fract_x
_atom_site_fract_y
_atom_site_fract_z
_atom_site_type_symbol
C       0.0036   0.9363   0.7635     C
H        0.017   0.4266   0.9431     H
H       0.0235   0.8841   0.9036     H
C       0.0349   0.0273   0.3065     C
H       0.0418   0.3717   0.7018     H
O       0.0463   0.9001  0.57664     O
H       0.0561   0.6288   0.1738     H
C       0.0612   0.4188   0.8409     C
C       0.0917   0.0666   0.1127     C
C       0.1043   0.4534   0.9103     C
C       0.1072   0.9247   0.6418     C
H       0.1209   0.8892   0.7783     H
C       0.1284   0.0323   0.1859     C
O       0.1463   0.5188  0.55439     O
Cd     0.14876  0.33262 0.454192    Cd
C       0.1584   0.4189   0.7176     C
H        0.195   0.0532   0.0184     H
C       0.1954   0.4554     0.79     C
O       0.2089   0.7561  0.43064     O
C       0.2101   0.9513   0.3305     C
C       0.2213   0.0289   0.0662     C
O       0.2249   0.4045  0.33897     O
C       0.2424   0.4035   0.5935     C
C       0.2576   0.9035   0.4065     C
O       0.2751   0.9045  0.66103     O
C       0.2787   0.5289   0.9338     C
C       0.2899   0.4513   0.6695     C
O       0.2911   0.2561  0.56936     O
C       0.3046   0.9554     0.21     C
H        0.305   0.5532   0.9816     H
C       0.3416   0.9189   0.2824     C
Cd     0.35124  0.83262 0.545808    Cd
O       0.3537   0.0188  0.44561     O
C       0.3716   0.5323   0.8141     C
H       0.3791   0.3892   0.2217     H
C       0.3928   0.4247   0.3582     C
C       0.3957   0.9534   0.0897     C
C       0.4083   0.5666   0.8873     C
C       0.4388   0.9188   0.1591     C
H       0.4439   0.1288   0.8262     H
O       0.4537   0.4001  0.42336     O
H       0.4582   0.8717   0.2982     H
C       0.4651   0.5273   0.6935     C
H       0.4765   0.3841   0.0964     H
H        0.483   0.9266   0.0569     H
C       0.4964   0.4363   0.2365     C
C       0.5036   0.5637   0.7635     C
H        0.517   0.0734   0.9431     H
H       0.5235   0.6159   0.9036     H
C       0.5349   0.4727   0.3065     C
H       0.5418   0.1283   0.7018     H
O       0.5463   0.5999  0.57664     O
H       0.5561   0.8712   0.1738     H
C       0.5612   0.0812   0.8409     C
C       0.5917   0.4334   0.1127     C
C       0.6043   0.0466   0.9103     C
C       0.6072   0.5753   0.6418     C
H       0.6209   0.6108   0.7783     H
C       0.6284   0.4677   0.1859     C
O       0.6463   0.9812  0.55439     O
Cd     0.64876  0.16738 0.454192    Cd
C       0.6584   0.0811   0.7176     C
H        0.695   0.4468   0.0184     H
C       0.6954   0.0446     0.79     C
O       0.7089   0.7439  0.43064     O
C       0.7101   0.5487   0.3305     C
C       0.7213   0.4711   0.0662     C
O       0.7249   0.0955  0.33897     O
C       0.7424   0.0965   0.5935     C
C       0.7576   0.5965   0.4065     C
O       0.7751   0.5955  0.66103     O
C       0.7787   0.9711   0.9338     C
C       0.7899   0.0487   0.6695     C
O       0.7911   0.2439  0.56936     O
C       0.8046   0.5446     0.21     C
H        0.805   0.9468   0.9816     H
C       0.8416   0.5811   0.2824     C
Cd     0.85124  0.66738 0.545808    Cd
O       0.8537   0.4812  0.44561     O
C       0.8716   0.9677   0.8141     C
H       0.8791   0.1108   0.2217     H
C       0.8928   0.0753   0.3582     C
C       0.8957   0.5466   0.0897     C
C       0.9083   0.9334   0.8873     C
C       0.9388   0.5812   0.1591     C
H       0.9439   0.3712   0.8262     H
O       0.9537   0.0999  0.42336     O
H       0.9582   0.6283   0.2982     H
C       0.9651   0.9727   0.6935     C
H       0.9765   0.1159   0.0964     H
H        0.983   0.5734   0.0569     H
C       0.9964   0.0637   0.2365     C
