data_I
_chemical_name_common  '/home/zhangsd/repos/MofS-CGCNN/ML/data/WS24/clean_cifs/UNINIP'
_cell_length_a 13.07270
_cell_length_b 13.67390
_cell_length_c 14.00030
_cell_angle_alpha 70.61100
_cell_angle_beta  62.78500
_cell_angle_gamma 78.86000
_space_group_name_H-M_alt      'P 1'


loop_
_space_group_symop_operation_xyz
  'x, y, z' 

loop_
_atom_site_label
_atom_site_fract_x
_atom_site_fract_y
_atom_site_fract_z
_atom_site_type_symbol
C       0.0037   0.8168    0.197     C
O       0.0091   0.9027   0.1266     O
H       0.0337   0.6877   0.4641     H
H       0.0349    0.029    0.324     H
H       0.0355   0.3559   0.8073     H
H       0.0401    0.864   0.3798     H
H        0.053   0.2064   0.2506     H
C       0.0769    0.728   0.4729     C
C       0.0806   0.8324   0.4231     C
C       0.0863   0.0618   0.3309     C
O       0.0896   0.7682   0.2106     O
C       0.0975   0.1668   0.2875     C
C       0.1061   0.3284   0.7644     C
C       0.1085   0.2387   0.7411     C
H       0.1295   0.0183   0.8599     H
O       0.1346   0.0716   0.6442     O
H       0.1359   0.6125   0.5698     H
H       0.1365   0.4995   0.7987     H
C       0.1369   0.6836   0.5354     C
H       0.1405   0.5535   0.3613     H
C       0.1453   0.8912   0.4376     C
C       0.1546   0.0052    0.386     C
O       0.1714   0.9656   0.8761     O
C       0.1745   0.2143   0.2981     C
H       0.1762   0.1506   0.9373     H
H       0.1771   0.5772   0.1784     H
H       0.1832   0.2855   0.2689     H
H       0.1953   0.9317   0.8281     H
C          0.2   0.7465   0.5469     C
C       0.2035   0.5181    0.318     C
N       0.2043   0.8472   0.4995     N
C       0.2049   0.3808   0.7267     C
Cd     0.20519  0.89992  0.03134    Cd
C       0.2056   0.4702   0.7553     C
C       0.2145   0.1978   0.6722     C
C       0.2222   0.1057   0.6309     C
C        0.225   0.5324   0.2084     C
C        0.226   0.1489   0.9686     C
N       0.2284    0.051    0.396     N
C       0.2363   0.1531   0.3526     C
H       0.2383   0.3041   0.9204     H
H       0.2408    0.716     0.59     H
H       0.2544   0.4473   0.4378     H
N       0.2588   0.0577   0.0212     N
C       0.2624   0.2412   0.9583     C
C       0.2711   0.4546   0.3638     C
O        0.281   0.7541   0.9711     O
H       0.2882   0.1845   0.3603     H
H       0.3053   0.5734   0.7388     H
O        0.306   0.8381   0.7189     O
C       0.3068   0.5141   0.7196     C
C       0.3113   0.3378   0.6634     C
C       0.3116   0.2462   0.6373     C
H       0.3124   0.7195    0.179     H
C       0.3154   0.4816    0.145     C
Cd      0.3169  0.94915   0.5123    Cd
N       0.3179   0.8699   0.1273     N
O       0.3239     0.07   0.5789     O
C       0.3301   0.0549   0.0675     C
H       0.3308   0.4919   0.0707     H
C        0.335   0.2384   0.0052     C
C       0.3417   0.7755   0.1806     C
H       0.3601   0.2997   0.0006     H
C       0.3617   0.9518   0.1268     C
C       0.3652   0.3997   0.3026     C
C       0.3705   0.1451   0.0588     C
C       0.3715   0.7892   0.8883     C
H       0.3817    0.218   0.5941     H
C       0.3876   0.4119   0.1913     C
C       0.3958   0.7957   0.6602     C
O       0.4011   0.8796    0.862     O
C       0.4082   0.7559   0.2386     C
C       0.4097   0.4732   0.6566     C
C       0.4121   0.3874   0.6279     C
H       0.4214   0.1422   0.0893     H
H        0.422   0.6886   0.2771     H
H       0.4238    0.327   0.4199     H
O       0.4264   0.8073   0.5571     O
C       0.4315   0.9368   0.1825     C
C       0.4371   0.3326   0.3471     C
H       0.4487   0.0358   0.6206     H
C        0.454   0.8396    0.238     C
C       0.4543   0.7179   0.8227     C
H       0.4622   0.9933   0.1814     H
C        0.473   0.7256   0.7121     C
H       0.4778    0.504   0.6335     H
C       0.4805   0.3524   0.1294     C
H       0.4823   0.9676    0.703     H
H       0.4824   0.3605   0.5834     H
O       0.4955   0.9893   0.3617     O
H       0.4975   0.3612    0.055     H
H          0.5    0.171   0.7244     H
H          0.5    0.829   0.2756     H
H       0.5025   0.6388    0.945     H
O       0.5045   0.0107   0.6383     O
H       0.5176   0.6395   0.4166     H
H       0.5177   0.0324    0.297     H
C       0.5195   0.6476   0.8706     C
H       0.5222    0.496   0.3665     H
C        0.527   0.2744   0.2879     C
H       0.5378   0.0067   0.8186     H
C       0.5457   0.2821   0.1773     C
C        0.546   0.1604    0.762     C
H       0.5513   0.9642   0.3794     H
C       0.5629   0.6674   0.6529     C
C       0.5685   0.0632   0.8175     C
O       0.5736   0.1927   0.4429     O
H       0.5762    0.673   0.5801     H
H        0.578   0.3114   0.7229     H
H       0.5786   0.8578   0.9107     H
C       0.5879   0.6126   0.3721     C
C       0.5903   0.5268   0.3434     C
C       0.5918   0.2441   0.7614     C
O       0.5989   0.1204    0.138     O
C       0.6042   0.2043   0.3398     C
C       0.6124   0.5881   0.8087     C
H       0.6183    0.782   0.4059     H
C       0.6285   0.2108   0.1117     C
C       0.6295   0.8549   0.9412     C
C       0.6348   0.6003   0.6974     C
C       0.6383   0.0482   0.8732     C
H       0.6399   0.7003   0.9994     H
C       0.6583   0.2245   0.8194     C
C        0.665   0.7616   0.9948     C
H       0.6692   0.5081   0.9293     H
C       0.6699   0.9451   0.9325     C
O       0.6761     0.93   0.4211     O
N       0.6821   0.1301   0.8727     N
Cd      0.6831  0.05085   0.4877    Cd
C       0.6846   0.5184    0.855     C
H       0.6876   0.2805    0.821     H
C       0.6884   0.7538   0.3627     C
C       0.6887   0.6622   0.3366     C
C       0.6932   0.4859   0.2804     C
O        0.694   0.1619   0.2811     O
H       0.6947   0.4266   0.2612     H
H       0.7118   0.8155   0.6397     H
O        0.719   0.2459   0.0289     O
C       0.7289   0.5454   0.6362     C
C       0.7376   0.7588   0.0417     C
N       0.7412   0.9423   0.9788     N
H       0.7456   0.5527   0.5622     H
H       0.7592    0.284     0.41     H
H       0.7617   0.6959   0.0796     H
C       0.7637   0.8469   0.6474     C
N       0.7716    0.949    0.604     N
C        0.774   0.8511   0.0314     C
C        0.775   0.4676   0.7916     C
C       0.7778   0.8943   0.3691     C
C       0.7855   0.8022   0.3278     C
C       0.7944   0.5298   0.2447     C
Cd     0.79481  0.10008  0.96866    Cd
C       0.7951   0.6192   0.2733     C
N       0.7957   0.1528   0.5005     N
C       0.7965   0.4819    0.682     C
C          0.8   0.2535   0.4531     C
H       0.8047   0.0683   0.1719     H
H       0.8168   0.7145   0.7311     H
H       0.8229   0.4228   0.8216     H
H       0.8238   0.8494   0.0627     H
C       0.8255   0.7857   0.7019     C
O       0.8286   0.0344   0.1239     O
C       0.8454   0.9948    0.614     C
C       0.8547   0.1088   0.5624     C
H       0.8595   0.4465   0.6387     H
C       0.8631   0.3164   0.4646     C
H       0.8635   0.5005   0.2013     H
H       0.8641   0.3875   0.4302     H
O       0.8654   0.9284   0.3558     O
H       0.8705   0.9817   0.1401     H
C       0.8915   0.7613   0.2589     C
C       0.8939   0.6716   0.2356     C
C       0.9025   0.8332   0.7125     C
O       0.9104   0.2318   0.7894     O
C       0.9137   0.9382   0.6691     C
C       0.9194   0.1676   0.5769     C
C       0.9231    0.272   0.5271     C
H        0.947   0.7936   0.7494     H
H       0.9599    0.136   0.6202     H
H       0.9645   0.6441   0.1927     H
H       0.9651    0.971    0.676     H
H       0.9663   0.3123   0.5359     H
O       0.9909   0.0973   0.8734     O
C       0.9963   0.1832    0.803     C
