data_I
_chemical_name_common  '/home/zhangsd/repos/MofS-CGCNN/ML/data/WS24/clean_cifs/UTSA-16'
_cell_length_a 13.19330
_cell_length_b 13.19330
_cell_length_c 30.06616
_cell_angle_alpha 90.00000
_cell_angle_beta  90.00000
_cell_angle_gamma 90.00000
_space_group_name_H-M_alt      'P 1'


loop_
_space_group_symop_operation_xyz
  'x, y, z' 

loop_
_atom_site_label
_atom_site_fract_x
_atom_site_fract_y
_atom_site_fract_z
_atom_site_type_symbol
Co        -0.5      0.0 -0.05787    Co
O      -0.4168  0.08053  -0.0146     O
O     -0.33358 -0.01122  0.08511     O
H     -0.328058 0.172868 0.0449684     H
C     -0.31751  0.08289 -0.01335     C
C     -0.26873  0.14386  0.02324     C
O     -0.26331  0.03907 -0.04238     O
K        -0.25  0.16459   -0.125     K
K        -0.25  0.33541    0.375     K
K        -0.25  1.16459   -0.125     K
C     -0.24479 -0.01904  0.06797     C
H     -0.234758 0.160067 0.111951     H
H     -0.227959 0.207048 0.00830631     H
H     -0.223035 0.858418 -0.0793439     H
H     -0.207048 0.772041 -0.00830631     H
O     -0.19942 -0.10537  0.06166     O
C     -0.19231  0.08032  0.05201     C
H     -0.172868 0.671942 -0.0449684     H
C     -0.16647   0.1499   0.0921     C
K     -0.16459    -0.25    0.125     K
K     -0.16459     0.75    0.125     K
H     -0.160067 0.765242 -0.111951     H
C      -0.1499  0.83353  -0.0921     C
C     -0.14386  0.73127 -0.02324     C
H     -0.141582 0.223035 0.0793439     H
O     -0.11053  0.07104  0.15889     O
O     -0.11053  0.42896  0.09111     O
O     -0.10963  0.00928 -0.10902     O
C     -0.10759  0.91632 -0.12192     C
O     -0.10537  0.19942 -0.06166     O
O     -0.10537  0.30058  0.31166     O
Co    -0.10466  0.04948 -0.04033    Co
Co    -0.10466  0.45052  0.29033    Co
Co    -0.10466  1.04948 -0.04033    Co
O     -0.09973   0.0548  0.02867     O
O     -0.09973   0.4452  0.22133     O
C     -0.08368  0.10759  0.12192     C
O      -0.0832  0.08053  -0.2354     O
O      -0.0832  0.41947   0.4854     O
C     -0.08289  0.68249  0.01335     C
O     -0.08053  -0.0832   0.2354     O
O     -0.08053   0.5832   0.0146     O
C     -0.08032  0.80769 -0.05201     C
O     -0.07104 -0.11053 -0.15889     O
O     -0.07104  0.61053  0.40889     O
O      -0.0548 -0.09973 -0.02867     O
O      -0.0548  0.59973  0.27867     O
Co    -0.04948 -0.10466  0.04033    Co
Co    -0.04948  0.60466  0.20967    Co
Co    -0.04948  0.89534  0.04033    Co
O     -0.03907 -0.26331  0.04238     O
C     -0.01904  0.24479 -0.06797     C
C     -0.01904  0.25521  0.31797     C
O     -0.01122  0.16642  0.33511     O
O     -0.01122  0.33358 -0.08511     O
O     -0.00928 -0.10963  0.10902     O
O     -0.00928  0.60963  0.14098     O
Co         0.0      0.0 -0.19213    Co
Co         0.0      0.0  0.19213    Co
Co         0.0      0.5  0.05787    Co
Co         0.0      0.5  0.44213    Co
Co         0.0      1.0 -0.19213    Co
Co         0.0      1.0  0.80787    Co
O      0.00928  0.10963  0.10902     O
O      0.00928  0.39037  0.14098     O
O      0.01122  0.66642 -0.08511     O
C      0.01904  0.75521 -0.06797     C
O      0.03907  0.23669  0.20762     O
O      0.03907  0.26331  0.04238     O
Co     0.04948  0.10466  0.04033    Co
Co     0.04948  0.39534  0.20967    Co
O       0.0548  0.09973 -0.02867     O
O       0.0548  0.40027  0.27867     O
O      0.07104  0.11053 -0.15889     O
O      0.07104  0.38947  0.40889     O
C      0.08032  0.19231 -0.05201     C
C      0.08032  0.30769  0.30201     C
O      0.08053   0.0832   0.2354     O
O      0.08053   0.4168   0.0146     O
C      0.08289  0.18249  0.23665     C
C      0.08289  0.31751  0.01335     C
O       0.0832 -0.08053  -0.2354     O
O       0.0832  0.58053   0.4854     O
C      0.08368 -0.10759  0.12192     C
C      0.08368  0.60759  0.12808     C
O      0.09973  -0.0548  0.02867     O
O      0.09973   0.5548  0.22133     O
H     0.101943 0.783043 0.444528     H
Co     0.10466 -0.04948 -0.04033    Co
Co     0.10466  0.54948  0.29033    Co
Co     0.10466  0.95052 -0.04033    Co
O      0.10537 -0.19942 -0.06166     O
O      0.10537  0.69942  0.31166     O
C      0.10759  0.08368 -0.12192     C
C      0.10759  0.41632  0.37192     C
O      0.10963 -0.00928 -0.10902     O
O      0.10963  0.50928  0.35902     O
O      0.11053 -0.07104  0.15889     O
O      0.11053  0.57104  0.09111     O
H     0.120375 0.630651 0.853826     H
O      0.13118  0.68847  0.83322     O
O      0.13118  0.81153  0.41678     O
H     0.141582 -0.223035 0.0793439     H
H     0.141582 0.723035 0.170656     H
C      0.14386  0.23127  0.27324     C
C      0.14386  0.26873 -0.02324     C
H     0.145517 0.174748 0.563983     H
H     0.145517 0.325252 0.686017     H
C       0.1499  0.16647  -0.0921     C
C       0.1499  0.33353   0.3421     C
H     0.160067 0.234758 -0.111951     H
H     0.160067 0.265242 0.361951     H
K      0.16459     0.25    0.125     K
H     0.166221 0.664201    0.806     H
O      0.16642  0.48878  0.58511     O
O      0.16642  1.01122  0.66489     O
C      0.16647  -0.1499   0.0921     C
C      0.16647   0.6499   0.1579     C
H     0.171942 0.672868 0.544968     H
H     0.171942 0.827132 0.705032     H
H     0.172868 0.171942 0.294968     H
H     0.172868 0.328058 -0.0449684     H
H     0.173796 0.871264 0.424131     H
C      0.18249  0.58289  0.48665     C
C      0.18249  0.91711  0.76335     C
O      0.18847  0.13118  0.58322     O
O      0.18847  0.36882  0.66678     O
C      0.19231 -0.08032  0.05201     C
C      0.19231  0.58032  0.19799     C
O      0.19942  0.10537  0.06166     O
O      0.19942  0.39463  0.18834     O
H     0.207048 0.227959 -0.00830631     H
H     0.207048 0.272041 0.258306     H
H     0.222109 0.0786381 0.564745     H
H     0.222109 0.421362 0.685255     H
H     0.223035 0.141582 -0.0793439     H
H     0.223035 0.358418 0.329344     H
H     0.227959 -0.207048 0.00830631     H
H     0.227959 0.707048 0.241694     H
C      0.23127  0.64386  0.52324     C
C      0.23127  0.85614  0.72676     C
H     0.234758 -0.160067 0.111951     H
H     0.234758 0.660067 0.138049     H
O      0.23669  0.53907  0.45762     O
O      0.23669  0.96093  0.79238     O
C      0.24479  0.01904  0.06797     C
C      0.24479  0.48096  0.18203     C
K         0.25 -0.16459   -0.125     K
K         0.25 -0.16459    0.875     K
K         0.25  0.66459    0.375     K
K         0.25  0.83541   -0.125     K
K         0.25  0.83541    0.875     K
C      0.25521  0.48096  0.56797     C
C      0.25521  1.01904  0.68203     C
O      0.26331 -0.03907 -0.04238     O
O      0.26331  0.53907  0.29238     O
H     0.265242 0.660067 0.611951     H
H     0.265242 0.839933 0.638049     H
C      0.26873 -0.14386  0.02324     C
C      0.26873  0.64386  0.22676     C
H     0.272041 0.707048 0.508306     H
H     0.272041 0.792952 0.741694     H
H     0.276965 0.141582 0.829344     H
H     0.276965 0.358418 0.420656     H
H     0.281707 0.0646795 0.175026     H
H     0.292952 0.227959 0.758306     H
H     0.292952 0.272041 0.491694     H
O      0.30058  0.10537  0.68834     O
O      0.30058  0.39463  0.56166     O
C      0.30769  0.58032  0.55201     C
C      0.30769  0.91968  0.69799     C
O      0.31153  0.13118  0.16678     O
O      0.31153  0.36882  0.08322     O
C      0.31751 -0.08289 -0.01335     C
C      0.31751  0.58289  0.26335     C
H     0.324398 0.859033 0.316597     H
H     0.327132 0.171942 0.455032     H
H     0.327132 0.328058 0.794968     H
H     0.328058 -0.172868 0.0449684     H
H     0.328058 0.672868 0.205032     H
H     0.329449 0.338162 0.0540997     H
C      0.33353   0.6499   0.5921     C
C      0.33353   0.8501   0.6579     C
O      0.33358  0.01122  0.08511     O
O      0.33358  0.48878  0.16489     O
K      0.33541     0.25    0.625     K
K      0.33541     1.25    0.625     K
H     0.339933 0.234758 0.861951     H
H     0.339933 0.265242 0.388049     H
C       0.3501  0.16647   0.8421     C
C       0.3501  0.33353   0.4079     C
C      0.35614  0.23127  0.47676     C
C      0.35614  0.26873  0.77324     C
H     0.358418 0.723035 0.579344     H
H     0.358418 0.776965 0.670656     H
O      0.36882  0.68847  0.91678     O
O      0.36882  0.81153  0.33322     O
H     0.369349 0.120375 0.146174     H
H     0.372922 0.372354 0.102264     H
O      0.38947 -0.07104  0.59111     O
O      0.38947  0.57104  0.65889     O
O      0.39037 -0.00928  0.85902     O
O      0.39037  0.50928  0.39098     O
C      0.39241  0.08368  0.87192     C
C      0.39241  0.41632  0.37808     C
O      0.39463  0.69942  0.43834     O
O      0.39463  0.80058  0.81166     O
Co     0.39534 -0.04948  0.79033    Co
Co     0.39534  0.54948  0.45967    Co
Co     0.39534  0.95052  0.79033    Co
O      0.40027  -0.0548  0.72133     O
O      0.40027   0.5548  0.52867     O
H     0.402109 0.645517 0.893929     H
H     0.407892 0.849643  0.35596     H
C      0.41632  0.60759  0.62192     C
C      0.41632  0.89241  0.62808     C
O       0.4168 -0.08053  -0.0146     O
O       0.4168  0.58053   0.2646     O
C      0.41711  0.18249  0.51335     C
C      0.41711  0.31751  0.73665     C
O      0.41947   0.0832   0.5146     O
O      0.41947   0.4168   0.7354     O
C      0.41968  0.19231  0.80201     C
C      0.41968  0.30769  0.44799     C
H     0.421362 0.722109 0.935255     H
O      0.42896  0.11053  0.90889     O
O      0.42896  0.38947  0.34111     O
O       0.4452  0.09973  0.77867     O
O       0.4452  0.40027  0.47133     O
Co     0.45052  0.10466  0.70967    Co
Co     0.45052  0.39534  0.54033    Co
Co     0.45052  1.10466  0.70967    Co
O      0.46093  0.23669  0.54238     O
O      0.46093  0.26331  0.70762     O
C      0.48096  0.74479  0.43203     C
C      0.48096  0.75521  0.81797     C
O      0.48878  0.66642  0.83511     O
O      0.48878  0.83358  0.41489     O
O      0.49072  0.10963  0.64098     O
O      0.49072  0.39037  0.60902     O
Co         0.5      0.0 -0.05787    Co
Co         0.5      0.0  0.55787    Co
Co         0.5      0.0  0.94213    Co
Co         0.5      0.5  0.30787    Co
Co         0.5      0.5  0.69213    Co
Co         0.5      1.0  0.55787    Co
Co         0.5      1.0  0.94213    Co
O      0.50928  0.60963  0.60902     O
O      0.50928  0.89037  0.64098     O
O      0.51122  0.16642  0.41489     O
O      0.51122  0.33358  0.83511     O
C      0.51904  0.24479  0.81797     C
C      0.51904  0.25521  0.43203     C
O      0.53907  0.73669  0.70762     O
O      0.53907  0.76331  0.54238     O
Co     0.54948 -0.10466  0.70967    Co
Co     0.54948  0.60466  0.54033    Co
Co     0.54948  0.89534  0.70967    Co
O       0.5548 -0.09973  0.77867     O
O       0.5548  0.59973  0.47133     O
H     0.560777 0.214045 0.329987     H
H     0.560777 0.285955 0.920013     H
O      0.57104 -0.11053  0.90889     O
O      0.57104  0.61053  0.34111     O
C      0.58032  0.69231  0.44799     C
C      0.58032  0.80769  0.80201     C
O      0.58053  -0.0832   0.5146     O
O      0.58053   0.5832   0.7354     O
C      0.58289  0.68249  0.73665     C
C      0.58289  0.81751  0.51335     C
O       0.5832  0.41947   0.2646     O
C      0.58368  0.10759  0.62808     C
C      0.58368  0.39241  0.62192     C
O      0.59973   0.0548  0.72133     O
O      0.59973   0.4452  0.52867     O
Co     0.60466  0.04948  0.79033    Co
Co     0.60466  0.45052  0.45967    Co
Co     0.60466  1.04948  0.79033    Co
O      0.60537  0.19942  0.81166     O
O      0.60537  0.30058  0.43834     O
C      0.60759  0.58368  0.37808     C
C      0.60759  0.91632  0.87192     C
O      0.60963  0.00928  0.85902     O
O      0.60963  0.49072  0.39098     O
O      0.61053  0.07104  0.59111     O
O      0.61053  0.42896  0.65889     O
O      0.63118  0.18847  0.33322     O
O      0.63118  0.31153  0.91678     O
H     0.641582 0.223035 0.670656     H
H     0.641582 0.276965 0.579344     H
C      0.64386  0.73127  0.77324     C
C      0.64386  0.76873  0.47676     C
H     0.645517 0.674748 0.0639832     H
H     0.645517 0.825252 0.186017     H
C       0.6499  0.66647   0.4079     C
C       0.6499  0.83353   0.8421     C
H     0.659647 0.173401  0.30337     H
H     0.659647 0.326599  0.94663     H
H     0.660067 0.734758 0.388049     H
H     0.660067 0.765242 0.861951     H
K      0.66459    -0.25    0.625     K
K      0.66459     0.75    0.625     K
O      0.66642  0.51122  0.16489     O
C      0.66647   0.1499   0.6579     C
C      0.66647   0.3501   0.5921     C
H     0.671942 0.327132 0.205032     H
H     0.672868 0.671942 0.794968     H
H     0.672868 0.828058 0.455032     H
C      0.68249  0.41711  0.26335     C
O      0.68847  0.63118  0.08322     O
O      0.68847  0.86882  0.16678     O
C      0.69231  0.08032  0.69799     C
C      0.69231  0.41968  0.55201     C
O      0.69942 -0.10537  0.68834     O
O      0.69942  0.60537  0.56166     O
H     0.707048 0.727959 0.491694     H
H     0.707048 0.772041 0.758306     H
H     0.722109 0.578638 0.064745     H
H     0.722109 0.921362 0.185255     H
H     0.723035 0.641582 0.420656     H
H     0.723035 0.858418 0.829344     H
H     0.727959 0.207048 0.741694     H
H     0.727959 0.292952 0.508306     H
C      0.73127  0.35614  0.22676     C
H     0.734758 0.160067 0.638049     H
H     0.734758 0.339933 0.611951     H
O      0.73669  0.46093  0.29238     O
C      0.74479 -0.01904  0.68203     C
C      0.74479  0.51904  0.56797     C
K         0.75  0.16459    0.875     K
K         0.75  0.33541    0.375     K
K         0.75  1.16459    0.875     K
C      0.75521  0.51904  0.18203     C
O      0.76331  0.03907  0.79238     O
O      0.76331  0.46093  0.45762     O
H     0.765242 0.339933 0.138049     H
C      0.76873  0.14386  0.72676     C
C      0.76873  0.35614  0.52324     C
H     0.772041 0.292952 0.241694     H
H     0.776965 0.641582 0.329344     H
H     0.778179 0.916433 0.562241     H
H     0.792952 0.727959 0.258306     H
O      0.80058  0.60537  0.18834     O
C      0.80769  0.41968  0.19799     C
O      0.81153  0.63118  0.66678     O
O      0.81153  0.86882  0.58322     O
C      0.81751  0.08289  0.76335     C
C      0.81751  0.41711  0.48665     C
H     0.827132 0.828058 0.294968     H
H     0.828058 0.172868 0.705032     H
H     0.828058 0.327132 0.544968     H
H     0.832282 0.122668 0.416694     H
H     0.832282 0.377332 0.833306     H
H     0.832549 0.575538 0.646542     H
C      0.83353   0.3501   0.1579     C
O      0.83358 -0.01122  0.66489     O
O      0.83358  0.51122  0.58511     O
K      0.83541     0.75    0.125     K
H     0.839933 0.734758 0.361951     H
H     0.849643 0.907892  0.60596     H
C       0.8501  0.66647   0.3421     C
C      0.85614  0.76873  0.27324     C
H     0.858418 0.276965 0.170656     H
O      0.86882  0.18847  0.41678     O
O      0.86882  0.31153  0.83322     O
H     0.871264 0.673796 0.674131     H
O      0.89037  0.49072  0.35902     O
C      0.89241  0.58368  0.37192     C
Co     0.89534  0.45052  0.29033    Co
C      0.91632  0.39241  0.12808     C
C      0.91711  0.81751  0.23665     C
C      0.91968  0.69231  0.30201     C
H      0.93398 0.181096  0.40057     H
H      0.93398 0.318904  0.84943     H
Co     0.95052  0.60466  0.20967    Co
O      0.96093  0.76331  0.20762     O
Co         1.0      0.0  0.80787    Co
Co         1.0      0.5  0.05787    Co
Co         1.0      0.5  0.44213    Co
Co         1.0      1.0  0.19213    Co
O      1.01122  0.83358  0.33511     O
C      1.01904  0.74479  0.31797     C
Co     1.04948  0.39534  0.20967    Co
Co     1.10466  0.54948  0.29033    Co
K      1.16459     0.25    0.125     K
K         1.25  0.66459    0.375     K
