data_I
_chemical_name_common  '/home/zhangsd/repos/MofS-CGCNN/ML/data/WS24/clean_cifs/UVEWIC'
_cell_length_a 10.45000
_cell_length_b 10.45000
_cell_length_c 22.73600
_cell_angle_alpha 90.00000
_cell_angle_beta  90.00000
_cell_angle_gamma 90.00000
_space_group_name_H-M_alt      'P 1'


loop_
_space_group_symop_operation_xyz
  'x, y, z' 

loop_
_atom_site_label
_atom_site_fract_x
_atom_site_fract_y
_atom_site_fract_z
_atom_site_type_symbol
N       0.0288   0.3485   0.0931     N
N       0.0322   0.2766   0.9259     N
C       0.0369    0.431   0.0606     C
C       0.0414    0.374   0.9486     C
Mn     0.06014  0.07352  0.91835    Mn
Nb     0.06145  0.57121  0.98584    Nb
C       0.0711   0.4131   0.4072     C
Mn     0.07352  0.93986  0.16835    Mn
C       0.0753   0.7018    0.067     C
C       0.0794    0.773   0.9545     C
N       0.0822   0.7772   0.1022     N
N        0.086   0.8736   0.9356     N
N       0.1264    0.086   0.6856     N
C       0.1387    0.402   0.5166     C
N       0.1522   0.4034   0.3732     N
C       0.2005   0.5609   0.9096     C
N       0.2228   0.0822   0.8522     N
C        0.227   0.0794   0.7045     C
N       0.2401   0.3924   0.5345     N
C       0.2566   0.5429   0.0236     C
N       0.2766   0.9678   0.1759     N
N       0.2777   0.5518   0.8722     N
C       0.2982   0.0753    0.817     C
N       0.3485   0.9712   0.3431     N
N       0.3535   0.5327   0.0476     N
C        0.374   0.9586   0.1986     C
N       0.3924   0.7599   0.7845     N
C        0.402   0.8613   0.7666     C
N       0.4034   0.8478   0.6232     N
C       0.4131   0.9289   0.6572     C
Mn     0.42839  0.55837  0.80281    Mn
Nb     0.42879  0.06145  0.73584    Nb
C        0.431   0.9631   0.3106     C
C       0.4391   0.2005   0.6596     C
Mn     0.44163  0.42839  0.55281    Mn
N       0.4482   0.2777   0.6222     N
C       0.4571   0.2566   0.7736     C
N       0.4673   0.3535   0.7976     N
N       0.5327   0.6465   0.2976     N
C       0.5429   0.7434   0.2736     C
N       0.5518   0.7223   0.1222     N
Mn     0.55837  0.57161  0.05281    Mn
C       0.5609   0.7995   0.1596     C
C        0.569   0.0369   0.8106     C
Nb     0.57121  0.93855  0.23584    Nb
Mn     0.57161  0.44163  0.30281    Mn
C       0.5869   0.0711   0.1572     C
N       0.5966   0.1522   0.1232     N
C        0.598   0.1387   0.2666     C
N       0.6076   0.2401   0.2845     N
C        0.626   0.0414   0.6986     C
N       0.6465   0.4673   0.5476     N
N       0.6515   0.0288   0.8431     N
C       0.7018   0.9247    0.317     C
N       0.7223   0.4482   0.3722     N
N       0.7234   0.0322   0.6759     N
C       0.7434   0.4571   0.5236     C
N       0.7599   0.6076   0.0345     N
C        0.773   0.9206   0.2045     C
N       0.7772   0.9178   0.3522     N
C       0.7995   0.4391   0.4096     C
N       0.8478   0.5966   0.8732     N
C       0.8613    0.598   0.0166     C
N       0.8736    0.914   0.1856     N
N        0.914   0.1264   0.4356     N
N       0.9178   0.2228   0.6022     N
C       0.9206    0.227   0.4545     C
C       0.9247   0.2982    0.567     C
Mn     0.92648  0.06014  0.66835    Mn
C       0.9289   0.5869   0.9072     C
Nb     0.93855  0.42879  0.48584    Nb
Mn     0.93986  0.92648  0.41835    Mn
C       0.9586    0.626   0.4486     C
C       0.9631    0.569   0.5606     C
N       0.9678   0.7234   0.4259     N
N       0.9712   0.6515   0.5931     N
