data_I
_chemical_name_common  '/home/zhangsd/repos/MofS-CGCNN/ML/data/WS24/clean_cifs/UVUFUN'
_cell_length_a 22.39920
_cell_length_b 22.39920
_cell_length_c 22.39920
_cell_angle_alpha 109.47100
_cell_angle_beta  109.47100
_cell_angle_gamma 109.47100
_space_group_name_H-M_alt      'P 1'


loop_
_space_group_symop_operation_xyz
  'x, y, z' 

loop_
_atom_site_label
_atom_site_fract_x
_atom_site_fract_y
_atom_site_fract_z
_atom_site_type_symbol
Zn         0.0      0.5  0.30562    Zn
Zn         0.0      0.5  0.46262    Zn
Zn         0.0      0.5  0.80562    Zn
Zn         0.0      0.5  0.96262    Zn
H       0.0021   0.9657    0.679     H
C       0.0025   0.2213   0.5088     C
C       0.0039   0.7816   0.5215     C
H       0.0049   0.8592   0.9015     H
C       0.0063   0.7188   0.9975     C
N       0.0072   0.9214   0.4912     N
H       0.0087   0.9383   0.8516     H
C       0.0088   0.0025   0.7213     C
N       0.0088    0.016   0.9302     N
H       0.0093   0.6347   0.5672     H
C       0.0121   0.6161    0.418     C
C       0.0133   0.0496   0.3355     C
C       0.0137   0.3664   0.4549     C
C       0.0149   0.9074   0.4265     C
N        0.016   0.4302   0.5088     N
O      0.01737  0.59202  0.95203     O
C       0.0176   0.2777   0.9961     C
C       0.0191   0.6075   0.5926     C
H       0.0197    0.813   0.0679     H
C       0.0215   0.0039   0.2816     C
C       0.0235   0.9559   0.9038     C
C       0.0238   0.1084   0.8396     C
H       0.0247   0.4559   0.1016     H
C       0.0259   0.6932   0.4513     C
H       0.0277   0.1457   0.8794     H
O      0.03345  0.60025    0.371     O
H       0.0343   0.2133   0.0364     H
C       0.0363   0.3222   0.4867     C
H       0.0364   0.7133   0.0343     H
H       0.0366   0.3705   0.9491     H
Zn     0.03738  0.03738  0.53738    Zn
H       0.0423   0.6408   0.6457     H
C       0.0441   0.4479   0.0676     C
H       0.0441   0.5688   0.1457     H
C       0.0451   0.0588   0.4115     C
H       0.0465   0.3848   0.4369     H
O      0.04797  0.13999  0.56534     O
H       0.0482   0.9803   0.2933     H
C       0.0487   0.0746   0.7419     C
C       0.0496   0.8355   0.5133     C
H       0.0509   0.9214   0.5875     H
H       0.0521   0.1152   0.1617     H
C       0.0521   0.5962   0.1197     C
C       0.0545   0.1266   0.8011     C
H       0.0579   0.1254   0.9907     H
C       0.0588   0.9115   0.5451     C
H       0.0617   0.4133   0.0704     H
H       0.0631   0.1096   0.4479     H
O      0.06534  0.04797  0.63999     O
O       0.0668  0.46655  0.33755     O
H       0.0672   0.0093   0.1347     H
H       0.0675   0.9328   0.4421     H
C       0.0676   0.9479   0.0441     C
H       0.0679    0.313   0.0197     H
H       0.0688   0.5441   0.6457     H
N       0.0698   0.5858   0.5786     N
H       0.0704   0.9133   0.0617     H
C       0.0721   0.7466   0.4455     C
C       0.0735   0.0884   0.9809     C
C       0.0746   0.2419   0.5487     C
O      0.07465  0.48263  0.93466     O
H       0.0769   0.9753   0.9312     H
N       0.0786   0.0698   0.0858     N
H       0.0786   0.1661   0.1295     H
H       0.0808   0.1767   0.8153     H
C        0.082   0.0941   0.6981     C
C       0.0846   0.8158   0.4762     C
N       0.0858   0.5698   0.0786     N
H       0.0867   0.6484   0.1571     H
H       0.0875   0.0509   0.4214     H
C       0.0884   0.4809   0.5735     C
C       0.0885   0.1336   0.1473     C
O      0.09202  0.51737  0.45203     O
C       0.0926   0.0191   0.1075     C
C       0.0941   0.1981    0.582     C
H       0.0959   0.7345   0.4192     H
C       0.0962   0.5521   0.6197     C
H       0.0985   0.4577   0.6034     H
O      0.10025  0.53345    0.871     O
H       0.1016   0.9559   0.0247     H
H       0.1034   0.0985   0.9577     H
C        0.104   0.4879   0.4059     C
C       0.1075   0.5191   0.0926     C
C       0.1084   0.3396   0.5238     C
H       0.1096   0.9479   0.5631     H
H       0.1152   0.6617   0.5521     H
C       0.1161   0.5121    0.918     C
H        0.118   0.8517   0.4723     H
C       0.1197   0.0962   0.0521     C
H       0.1206   0.7663   0.6483     H
H       0.1254   0.4907   0.5579     H
C       0.1266   0.3011   0.5545     C
O        0.129  0.16245  0.72925     O
H       0.1295   0.6661   0.0786     H
C       0.1336   0.6473   0.5885     C
H       0.1347   0.5093   0.0672     H
H       0.1386   0.4041   0.3233     H
O      0.13999  0.06534  0.54797     O
H       0.1408   0.5423   0.1457     H
H       0.1457   0.0423   0.1408     H
H       0.1457   0.0688   0.0441     H
H       0.1457   0.3794   0.5277     H
C       0.1473   0.6336   0.0885     C
H       0.1483   0.1206   0.2663     H
H       0.1484   0.5867   0.6571     H
H       0.1571   0.1484   0.0867     H
C       0.1604   0.7688   0.6842     C
H       0.1617   0.6152   0.0521     H
O      0.16245  0.22925    0.629     O
C       0.1645   0.1778   0.2141     C
H       0.1661   0.6295   0.5786     H
C       0.1673   0.4741   0.4254     C
C       0.1745   0.4279   0.3734     C
H       0.1767   0.3153   0.5808     H
H       0.1769   0.4636   0.9979     H
C       0.1778   0.7141   0.6645     C
H        0.179   0.0021   0.4657     H
C       0.1842   0.1604   0.2688     C
H       0.1847   0.8614   0.7655     H
H        0.187   0.7549   0.2067     H
C       0.1932   0.5259   0.9513     C
Zn     0.19438  0.19438  0.69438    Zn
C       0.1981    0.082   0.5941     C
C       0.1989   0.8255   0.7534     C
H       0.2067   0.2549    0.187     H
C       0.2125   0.4937   0.9912     C
H       0.2133   0.5364   0.5343     H
C       0.2141   0.6778   0.1645     C
C       0.2184   0.2399   0.2223     C
C       0.2188   0.5063   0.4975     C
C       0.2213   0.0088   0.5025     C
C       0.2223   0.7399   0.2184     C
O      0.22925    0.129  0.66245     O
C       0.2312   0.4154   0.3916     C
H       0.2337    0.382   0.3543     H
H       0.2345   0.5959   0.9192     H
C       0.2399   0.7223   0.7184     C
C       0.2419   0.0487   0.5746     C
H       0.2451   0.9518   0.4321     H
C       0.2466   0.5721   0.9455     C
C       0.2534   0.1989   0.3255     C
H       0.2549    0.687   0.7067     H
C       0.2581   0.8327   0.8068     C
C       0.2601   0.9785   0.4824     C
H       0.2655   0.1847   0.3614     H
H       0.2663   0.6206   0.1483     H
C       0.2688   0.6604   0.1842     C
O      0.27075   0.9332  0.89975     O
C       0.2777   0.4961   0.5176     C
C       0.2787   0.7812   0.7875     C
C       0.2812   0.7787   0.2875     C
C       0.2816   0.5039   0.0215     C
C       0.2859   0.4504   0.4637     C
H       0.2867    0.821   0.3231     H
C       0.2875   0.2787   0.2812     C
H       0.2933   0.4803   0.0482     H
C       0.3011   0.0545   0.6266     C
C       0.3019    0.896   0.8839     C
Zn     0.30562      0.0      0.0    Zn
C       0.3068   0.2581   0.3327     C
H        0.313   0.5197   0.5679     H
H       0.3153   0.0808   0.6767     H
C       0.3158   0.5846   0.9762     C
H        0.321   0.7867   0.8231     H
C       0.3222   0.9867   0.5363     C
H       0.3231    0.321   0.2867     H
H       0.3233   0.9041   0.1386     H
C       0.3255   0.6989   0.2534     C
C       0.3327   0.7581   0.3068     C
H       0.3339   0.9125   0.4634     H
C       0.3355   0.5496   0.0133     C
O      0.33755  0.96655   0.0668     O
H       0.3383   0.3904   0.4535     H
C       0.3396   0.0238   0.6084     C
H       0.3429   0.4296   0.9913     H
H       0.3516   0.0087   0.4383     H
H       0.3517    0.618   0.9723     H
C       0.3527   0.4412   0.4863     C
H       0.3543   0.3984   0.9231     H
H       0.3543   0.4951   0.8966     H
H       0.3543    0.882   0.2337     H
H       0.3592   0.5049   0.4015     H
O      0.36001  0.90798  0.92535     O
H       0.3614   0.6847   0.2655     H
H       0.3653   0.4325   0.3746     H
C       0.3664   0.9549   0.5137     C
H       0.3705   0.4491   0.5366     H
O        0.371  0.10025  0.03345     O
C       0.3734   0.9279   0.1745     C
H       0.3746   0.9325   0.3653     H
H       0.3794   0.0277   0.6457     H
C       0.3803   0.4324   0.9765     C
H        0.382   0.8543   0.7337     H
C       0.3839   0.3019    0.396     C
H       0.3848   0.9369   0.5465     H
H       0.3904   0.9535   0.8383     H
C       0.3916   0.9154   0.2312     C
C       0.3925   0.4851   0.4116     C
C        0.396   0.8019   0.3839     C
H       0.3966   0.3543   0.9951     H
H       0.3984   0.4231   0.8543     H
O      0.39975  0.27075   0.4332     O
H       0.4015   0.0049   0.3592     H
C       0.4038   0.0235   0.4559     C
H       0.4041   0.8233   0.6386     H
C       0.4059   0.9879    0.104     C
C       0.4074   0.5149   0.9265     C
O      0.40798  0.86001  0.42535     O
C       0.4115   0.5588   0.0451     C
C       0.4116   0.9851   0.3925     C
H       0.4125   0.8339   0.9634     H
H       0.4133   0.5704   0.5617     H
N       0.4142   0.4928    0.484     N
C       0.4154   0.8916   0.7312     C
C        0.418   0.1161   0.0121     C
H       0.4192   0.2345   0.0959     H
N       0.4214   0.5072   0.9912     N
H       0.4214   0.5509   0.0875     H
H       0.4231   0.3543   0.8984     H
O      0.42535  0.36001  0.40798     O
C       0.4254   0.9741   0.1673     C
C       0.4265   0.4074   0.0149     C
C       0.4279   0.8734   0.6745     C
H       0.4296   0.4913   0.8429     H
N       0.4302   0.0088    0.516     N
H       0.4312   0.0769   0.4753     H
H       0.4321   0.4518   0.2451     H
C       0.4324   0.4765   0.8803     C
H       0.4325   0.8746   0.8653     H
H       0.4328   0.5675   0.9421     H
O       0.4332  0.77075  0.39975     O
O      0.43466  0.07465  0.98263     O
H       0.4369   0.8848   0.0465     H
H       0.4383   0.5087   0.3516     H
C       0.4412   0.9863   0.8527     C
H       0.4421   0.4328   0.0675     H
C       0.4455   0.2466   0.0721     C
C       0.4479   0.5676   0.5441     C
H       0.4479   0.6096   0.0631     H
H       0.4491   0.0366   0.8705     H
C       0.4504   0.9637   0.7859     C
C       0.4513   0.1932   0.0259     C
H       0.4518   0.7451   0.9321     H
O      0.45203  0.01737  0.09202     O
H       0.4535   0.8904   0.3383     H
C       0.4549   0.8664   0.0137     C
C       0.4559   0.5235   0.4038     C
H       0.4559   0.6016   0.5247     H
H       0.4577   0.1034   0.5985     H
Zn     0.46262      0.0     -0.0    Zn
H       0.4634   0.4125   0.3339     H
H       0.4636   0.4979   0.6769     H
C       0.4637   0.9504   0.2859     C
H       0.4657   0.5021    0.179     H
O      0.46655  0.83755   0.5668     O
H       0.4723   0.3517    0.118     H
C       0.4741   0.9254   0.6673     C
H       0.4753   0.5769   0.4312     H
C       0.4762   0.3158   0.0846     C
C       0.4765   0.3803   0.9324     C
C       0.4785   0.7601   0.9824     C
H       0.4803   0.5482   0.7933     H
C       0.4809   0.0735   0.5884     C
C       0.4824   0.4785   0.2601     C
O      0.48263  0.43466  0.57465     O
N        0.484   0.9928   0.4142     N
C       0.4851   0.9116   0.8925     C
C       0.4863   0.9412   0.3527     C
C       0.4867   0.8222   0.0363     C
C       0.4879   0.9059    0.604     C
H       0.4907   0.0579   0.6254     H
C       0.4912   0.2125   0.9937     C
N       0.4912   0.4214   0.0072     N
H       0.4913   0.3429   0.9296     H
N       0.4928    0.984   0.9142     N
C       0.4937   0.4912   0.7125     C
H       0.4951   0.3966   0.8543     H
C       0.4961   0.0176   0.7777     C
C       0.4975   0.0063   0.2188     C
H       0.4979   0.1769   0.9636     H
Zn         0.5  0.30562      0.5    Zn
Zn         0.5  0.46262      0.5    Zn
Zn         0.5  0.80562      0.5    Zn
Zn         0.5  0.96262      0.5    Zn
H       0.5021    0.679   0.9657     H
C       0.5025   0.5088   0.2213     C
C       0.5039   0.5215   0.7816     C
H       0.5049   0.9015   0.8592     H
C       0.5063   0.9975   0.7188     C
N       0.5072   0.4912   0.9214     N
H       0.5087   0.8516   0.9383     H
C       0.5088   0.7213   0.0025     C
N       0.5088   0.9302    0.016     N
H       0.5093   0.5672   0.6347     H
C       0.5121    0.418   0.6161     C
C       0.5133   0.3355   0.0496     C
C       0.5137   0.4549   0.3664     C
C       0.5149   0.4265   0.9074     C
N        0.516   0.5088   0.4302     N
O      0.51737  0.95203  0.59202     O
C       0.5176   0.9961   0.2777     C
C       0.5191   0.5926   0.6075     C
H       0.5197   0.0679    0.813     H
C       0.5215   0.2816   0.0039     C
C       0.5235   0.9038   0.9559     C
C       0.5238   0.8396   0.1084     C
H       0.5247   0.1016   0.4559     H
C       0.5259   0.4513   0.6932     C
H       0.5277   0.8794   0.1457     H
O      0.53345    0.371  0.60025     O
H       0.5343   0.0364   0.2133     H
C       0.5363   0.4867   0.3222     C
H       0.5364   0.0343   0.7133     H
H       0.5366   0.9491   0.3705     H
Zn     0.53738  0.53738  0.03738    Zn
H       0.5423   0.6457   0.6408     H
C       0.5441   0.0676   0.4479     C
H       0.5441   0.1457   0.5688     H
C       0.5451   0.4115   0.0588     C
H       0.5465   0.4369   0.3848     H
O      0.54797  0.56534  0.13999     O
H       0.5482   0.2933   0.9803     H
C       0.5487   0.7419   0.0746     C
C       0.5496   0.5133   0.8355     C
H       0.5509   0.5875   0.9214     H
C       0.5521   0.1197   0.5962     C
H       0.5521   0.1617   0.1152     H
C       0.5545   0.8011   0.1266     C
H       0.5579   0.9907   0.1254     H
C       0.5588   0.5451   0.9115     C
H       0.5617   0.0704   0.4133     H
H       0.5631   0.4479   0.1096     H
O      0.56534  0.63999  0.04797     O
O       0.5668  0.33755  0.46655     O
H       0.5672   0.1347   0.0093     H
H       0.5675   0.4421   0.9328     H
C       0.5676   0.0441   0.9479     C
H       0.5679   0.0197    0.313     H
H       0.5688   0.6457   0.5441     H
N       0.5698   0.5786   0.5858     N
H       0.5704   0.0617   0.9133     H
C       0.5721   0.4455   0.7466     C
C       0.5735   0.9809   0.0884     C
C       0.5746   0.5487   0.2419     C
O      0.57465  0.93466  0.48263     O
H       0.5769   0.9312   0.9753     H
N       0.5786   0.0858   0.0698     N
H       0.5786   0.1295   0.1661     H
H       0.5808   0.8153   0.1767     H
C        0.582   0.6981   0.0941     C
C       0.5846   0.4762   0.8158     C
N       0.5858   0.0786   0.5698     N
H       0.5867   0.1571   0.6484     H
H       0.5875   0.4214   0.0509     H
C       0.5884   0.5735   0.4809     C
C       0.5885   0.1473   0.1336     C
O      0.59202  0.45203  0.51737     O
C       0.5926   0.1075   0.0191     C
C       0.5941    0.582   0.1981     C
H       0.5959   0.4192   0.7345     H
C       0.5962   0.6197   0.5521     C
H       0.5985   0.6034   0.4577     H
O      0.60025    0.871  0.53345     O
H       0.6016   0.0247   0.9559     H
H       0.6034   0.9577   0.0985     H
C        0.604   0.4059   0.4879     C
C       0.6075   0.0926   0.5191     C
C       0.6084   0.5238   0.3396     C
H       0.6096   0.5631   0.9479     H
H       0.6152   0.5521   0.6617     H
C       0.6161    0.918   0.5121     C
H        0.618   0.4723   0.8517     H
C       0.6197   0.0521   0.0962     C
H       0.6206   0.6483   0.7663     H
H       0.6254   0.5579   0.4907     H
C       0.6266   0.5545   0.3011     C
O        0.629  0.72925  0.16245     O
H       0.6295   0.0786   0.6661     H
C       0.6336   0.5885   0.6473     C
H       0.6347   0.0672   0.5093     H
H       0.6386   0.3233   0.4041     H
O      0.63999  0.54797  0.06534     O
H       0.6408   0.1457   0.5423     H
H       0.6457   0.0441   0.0688     H
H       0.6457   0.1408   0.0423     H
H       0.6457   0.5277   0.3794     H
C       0.6473   0.0885   0.6336     C
H       0.6483   0.2663   0.1206     H
H       0.6484   0.6571   0.5867     H
H       0.6571   0.0867   0.1484     H
C       0.6604   0.6842   0.7688     C
H       0.6617   0.0521   0.6152     H
O      0.66245    0.629  0.22925     O
C       0.6645   0.2141   0.1778     C
H       0.6661   0.5786   0.6295     H
C       0.6673   0.4254   0.4741     C
C       0.6745   0.3734   0.4279     C
H       0.6767   0.5808   0.3153     H
H       0.6769   0.9979   0.4636     H
C       0.6778   0.6645   0.7141     C
H        0.679   0.4657   0.0021     H
C       0.6842   0.2688   0.1604     C
H       0.6847   0.7655   0.8614     H
H        0.687   0.2067   0.7549     H
C       0.6932   0.9513   0.5259     C
Zn     0.69438  0.69438  0.19438    Zn
C       0.6981   0.5941    0.082     C
C       0.6989   0.7534   0.8255     C
H       0.7067    0.187   0.2549     H
C       0.7125   0.9912   0.4937     C
H       0.7133   0.5343   0.5364     H
C       0.7141   0.1645   0.6778     C
C       0.7184   0.2223   0.2399     C
C       0.7188   0.4975   0.5063     C
C       0.7213   0.5025   0.0088     C
C       0.7223   0.2184   0.7399     C
O      0.72925  0.66245    0.129     O
C       0.7312   0.3916   0.4154     C
H       0.7337   0.3543    0.382     H
H       0.7345   0.9192   0.5959     H
C       0.7399   0.7184   0.7223     C
C       0.7419   0.5746   0.0487     C
H       0.7451   0.4321   0.9518     H
C       0.7466   0.9455   0.5721     C
C       0.7534   0.3255   0.1989     C
H       0.7549   0.7067    0.687     H
C       0.7581   0.8068   0.8327     C
C       0.7601   0.4824   0.9785     C
H       0.7655   0.3614   0.1847     H
H       0.7663   0.1483   0.6206     H
C       0.7688   0.1842   0.6604     C
O      0.77075  0.89975   0.9332     O
C       0.7777   0.5176   0.4961     C
C       0.7787   0.7875   0.7812     C
C       0.7812   0.2875   0.7787     C
C       0.7816   0.0215   0.5039     C
C       0.7859   0.4637   0.4504     C
H       0.7867   0.3231    0.821     H
C       0.7875   0.2812   0.2787     C
H       0.7933   0.0482   0.4803     H
C       0.8011   0.6266   0.0545     C
C       0.8019   0.8839    0.896     C
Zn     0.80562      0.0     -0.0    Zn
C       0.8068   0.3327   0.2581     C
H        0.813   0.5679   0.5197     H
H       0.8153   0.6767   0.0808     H
C       0.8158   0.9762   0.5846     C
H        0.821   0.8231   0.7867     H
C       0.8222   0.5363   0.9867     C
H       0.8231   0.2867    0.321     H
H       0.8233   0.1386   0.9041     H
C       0.8255   0.2534   0.6989     C
C       0.8327   0.3068   0.7581     C
H       0.8339   0.4634   0.9125     H
C       0.8355   0.0133   0.5496     C
O      0.83755   0.0668  0.96655     O
H       0.8383   0.4535   0.3904     H
C       0.8396   0.6084   0.0238     C
H       0.8429   0.9913   0.4296     H
H       0.8516   0.4383   0.0087     H
H       0.8517   0.9723    0.618     H
C       0.8527   0.4863   0.4412     C
H       0.8543   0.2337    0.882     H
H       0.8543   0.8966   0.4951     H
H       0.8543   0.9231   0.3984     H
H       0.8592   0.4015   0.5049     H
O      0.86001  0.92535  0.90798     O
H       0.8614   0.2655   0.6847     H
H       0.8653   0.3746   0.4325     H
C       0.8664   0.5137   0.9549     C
H       0.8705   0.5366   0.4491     H
O        0.871  0.03345  0.10025     O
C       0.8734   0.1745   0.9279     C
H       0.8746   0.3653   0.9325     H
H       0.8794   0.6457   0.0277     H
C       0.8803   0.9765   0.4324     C
H        0.882   0.7337   0.8543     H
C       0.8839    0.396   0.3019     C
H       0.8848   0.5465   0.9369     H
H       0.8904   0.8383   0.9535     H
C       0.8916   0.2312   0.9154     C
C       0.8925   0.4116   0.4851     C
C        0.896   0.3839   0.8019     C
H       0.8966   0.9951   0.3543     H
H       0.8984   0.8543   0.4231     H
O      0.89975   0.4332  0.27075     O
H       0.9015   0.3592   0.0049     H
C       0.9038   0.4559   0.0235     C
H       0.9041   0.6386   0.8233     H
C       0.9059    0.104   0.9879     C
C       0.9074   0.9265   0.5149     C
O      0.90798  0.42535  0.86001     O
C       0.9115   0.0451   0.5588     C
C       0.9116   0.3925   0.9851     C
H       0.9125   0.9634   0.8339     H
H       0.9133   0.5617   0.5704     H
N       0.9142    0.484   0.4928     N
C       0.9154   0.7312   0.8916     C
C        0.918   0.0121   0.1161     C
H       0.9192   0.0959   0.2345     H
H       0.9214   0.0875   0.5509     H
N       0.9214   0.9912   0.5072     N
H       0.9231   0.8984   0.3543     H
O      0.92535  0.40798  0.36001     O
C       0.9254   0.1673   0.9741     C
C       0.9265   0.0149   0.4074     C
C       0.9279   0.6745   0.8734     C
H       0.9296   0.8429   0.4913     H
N       0.9302    0.516   0.0088     N
H       0.9312   0.4753   0.0769     H
H       0.9321   0.2451   0.4518     H
C       0.9324   0.8803   0.4765     C
H       0.9325   0.8653   0.8746     H
H       0.9328   0.9421   0.5675     H
O       0.9332  0.39975  0.77075     O
O      0.93466  0.98263  0.07465     O
H       0.9369   0.0465   0.8848     H
H       0.9383   0.3516   0.5087     H
C       0.9412   0.8527   0.9863     C
H       0.9421   0.0675   0.4328     H
C       0.9455   0.0721   0.2466     C
H       0.9479   0.0631   0.6096     H
C       0.9479   0.5441   0.5676     C
H       0.9491   0.8705   0.0366     H
C       0.9504   0.7859   0.9637     C
C       0.9513   0.0259   0.1932     C
H       0.9518   0.9321   0.7451     H
O      0.95203  0.09202  0.01737     O
H       0.9535   0.3383   0.8904     H
C       0.9549   0.0137   0.8664     C
C       0.9559   0.4038   0.5235     C
H       0.9559   0.5247   0.6016     H
H       0.9577   0.5985   0.1034     H
Zn     0.96262      0.0      0.0    Zn
H       0.9634   0.3339   0.4125     H
H       0.9636   0.6769   0.4979     H
C       0.9637   0.2859   0.9504     C
H       0.9657    0.179   0.5021     H
O      0.96655   0.5668  0.83755     O
H       0.9723    0.118   0.3517     H
C       0.9741   0.6673   0.9254     C
H       0.9753   0.4312   0.5769     H
C       0.9762   0.0846   0.3158     C
C       0.9765   0.9324   0.3803     C
C       0.9785   0.9824   0.7601     C
H       0.9803   0.7933   0.5482     H
C       0.9809   0.5884   0.0735     C
C       0.9824   0.2601   0.4785     C
O      0.98263  0.57465  0.43466     O
N        0.984   0.4142   0.9928     N
C       0.9851   0.8925   0.9116     C
C       0.9863   0.3527   0.9412     C
C       0.9867   0.0363   0.8222     C
C       0.9879    0.604   0.9059     C
H       0.9907   0.6254   0.0579     H
N       0.9912   0.0072   0.4214     N
C       0.9912   0.9937   0.2125     C
H       0.9913   0.9296   0.3429     H
N       0.9928   0.9142    0.984     N
C       0.9937   0.7125   0.4912     C
H       0.9951   0.8543   0.3966     H
C       0.9961   0.7777   0.0176     C
C       0.9975   0.2188   0.0063     C
H       0.9979   0.9636   0.1769     H
