data_I
_chemical_name_common  '/home/zhangsd/repos/MofS-CGCNN/ML/data/WS24/clean_cifs/UXOHOG'
_cell_length_a 18.86840
_cell_length_b 18.86840
_cell_length_c 51.01470
_cell_angle_alpha 90.00000
_cell_angle_beta  90.00000
_cell_angle_gamma 120.00000
_space_group_name_H-M_alt      'P 1'


loop_
_space_group_symop_operation_xyz
  'x, y, z' 

loop_
_atom_site_label
_atom_site_fract_x
_atom_site_fract_y
_atom_site_fract_z
_atom_site_type_symbol
H       0.0013   0.2042   0.6841     H
H       0.0013   0.2042   0.8159     H
H       0.0013   0.7971   0.6841     H
H       0.0013   0.7971   0.8159     H
C       0.0029   0.2438  0.63474     C
C       0.0029   0.2438  0.86526     C
C       0.0029   0.7591  0.63474     C
C       0.0029   0.7591  0.86526     C
H       0.0053   0.2929   0.6411     H
H       0.0053   0.2929   0.8589     H
H       0.0053   0.7124   0.6411     H
H       0.0053   0.7124   0.8589     H
O      0.00728   0.1283  0.22281     O
O      0.00728   0.1283  0.27719     O
O      0.00728  0.87898  0.22281     O
O      0.00728  0.87898  0.27719     O
H       0.0126   0.2488   0.1166     H
H       0.0126   0.2488   0.3834     H
H       0.0126   0.7638   0.1166     H
H       0.0126   0.7638   0.3834     H
H       0.0247   0.2647   0.1433     H
H       0.0247   0.2647   0.3567     H
H       0.0247     0.76   0.1433     H
H       0.0247     0.76   0.3567     H
O      0.03401  0.44389  0.03226     O
O      0.03401  0.44389  0.46774     O
O      0.03401  0.59012  0.03226     O
O      0.03401  0.59012  0.46774     O
C       0.0443   0.2069  0.17575     C
C       0.0443   0.2069  0.32425     C
C       0.0443   0.8374  0.17575     C
C       0.0443   0.8374  0.32425     C
Cu     0.04505  0.52253  0.52173    Cu
Cu     0.04505  0.52253  0.97827    Cu
H       0.0556   0.2483   0.6366     H
H       0.0556   0.2483   0.8634     H
H       0.0556   0.8073   0.6366     H
H       0.0556   0.8073   0.8634     H
Cu      0.0597   0.1194     0.75    Cu
Cu      0.0597   0.9403     0.75    Cu
C       0.0603   0.2501   0.1509     C
C       0.0603   0.2501   0.3491     C
C       0.0603   0.8102   0.1509     C
C       0.0603   0.8102   0.3491     C
C      0.07165   0.1433  0.21415     C
C      0.07165   0.1433  0.28585     C
C      0.07165  0.92835  0.21415     C
C      0.07165  0.92835  0.28585     C
H        0.088   0.3871   0.0645     H
H        0.088   0.3871   0.4355     H
H        0.088   0.7009   0.0645     H
H        0.088   0.7009   0.4355     H
C      0.09374  0.45506  0.01901     C
C      0.09374  0.45506  0.48099     C
C      0.09374  0.63868  0.01901     C
C      0.09374  0.63868  0.48099     C
C       0.0948   0.1896  0.18755     C
C       0.0948   0.1896  0.31245     C
C       0.0948   0.9052  0.18755     C
C       0.0948   0.9052  0.31245     C
O      0.11058  0.48235  0.50407     O
O      0.11058  0.48235  0.99593     O
O      0.11058  0.62823  0.50407     O
O      0.11058  0.62823  0.99593     O
Cu      0.1194   0.0597     0.25    Cu
O      0.12102   0.1283  0.22281     O
O      0.12102   0.1283  0.27719     O
O      0.12102  0.99272  0.22281     O
O      0.12102  0.99272  0.27719     O
O       0.1283  0.00728  0.72281     O
O       0.1283  0.00728  0.77719     O
O       0.1283  0.12102  0.72281     O
O       0.1283  0.12102  0.77719     O
C       0.1336   0.2672  0.13995     C
C       0.1336   0.2672  0.36005     C
C       0.1336   0.8664  0.13995     C
C       0.1336   0.8664  0.36005     C
C      0.13555  0.39709  0.05592     C
C      0.13555  0.39709  0.44408     C
C      0.13555  0.73846  0.05592     C
C      0.13555  0.73846  0.44408     C
C       0.1433  0.07165  0.71415     C
C       0.1433  0.07165  0.78585     C
C      0.15196  0.43175  0.03119     C
C      0.15196  0.43175  0.46881     C
C      0.15196  0.72021  0.03119     C
C      0.15196  0.72021  0.46881     C
C       0.1534   0.3068  0.11466     C
C       0.1534   0.3068  0.38534     C
C       0.1534   0.8466  0.11466     C
C       0.1534   0.8466  0.38534     C
C       0.1626   0.2069  0.17575     C
C       0.1626   0.2069  0.32425     C
C       0.1626   0.9557  0.17575     C
C       0.1626   0.9557  0.32425     C
C       0.1687   0.2306  0.15099     C
C       0.1687   0.2306  0.34901     C
C       0.1687   0.9381  0.15099     C
C       0.1687   0.9381  0.34901     C
C       0.1701   0.3402  0.09409     C
C       0.1701   0.3402  0.40591     C
C       0.1701   0.8299  0.09409     C
C       0.1701   0.8299  0.40591     C
C       0.1886   0.3772    0.068     C
C       0.1886   0.3772    0.432     C
C       0.1886   0.8114    0.068     C
C       0.1886   0.8114    0.432     C
C       0.1896   0.0948  0.68755     C
C       0.1896   0.0948  0.81245     C
H       0.1927   0.2483   0.6366     H
H       0.1927   0.2483   0.8634     H
H       0.1927   0.9444   0.6366     H
H       0.1927   0.9444   0.8634     H
H       0.2029   0.2042   0.6841     H
H       0.2029   0.2042   0.8159     H
H       0.2029   0.9987   0.6841     H
H       0.2029   0.9987   0.8159     H
H       0.2042   0.0013   0.1841     H
H       0.2042   0.0013   0.3159     H
H       0.2042   0.2029   0.1841     H
H       0.2042   0.2029   0.3159     H
C       0.2069   0.0443  0.67575     C
C       0.2069   0.0443  0.82425     C
C       0.2069   0.1626  0.67575     C
C       0.2069   0.1626  0.82425     C
C      0.22465   0.4493  0.01911     C
C      0.22465   0.4493  0.48089     C
C      0.22465  0.77535  0.01911     C
C      0.22465  0.77535  0.48089     C
C       0.2306   0.0619  0.65099     C
C       0.2306   0.0619  0.84901     C
C       0.2306   0.1687  0.65099     C
C       0.2306   0.1687  0.84901     C
H       0.2362   0.2488   0.1166     H
H       0.2362   0.2488   0.3834     H
H       0.2362   0.9874   0.1166     H
H       0.2362   0.9874   0.3834     H
H      0.23665   0.4733   0.0026     H
H      0.23665   0.4733   0.4974     H
H      0.23665  0.76335   0.0026     H
H      0.23665  0.76335   0.4974     H
H         0.24   0.2647   0.1433     H
H         0.24   0.2647   0.3567     H
H         0.24   0.9753   0.1433     H
H         0.24   0.9753   0.3567     H
C       0.2409   0.2438  0.63474     C
C       0.2409   0.2438  0.86526     C
C       0.2409   0.9971  0.63474     C
C       0.2409   0.9971  0.86526     C
C       0.2438   0.0029  0.13474     C
C       0.2438   0.0029  0.36526     C
C       0.2438   0.2409  0.13474     C
C       0.2438   0.2409  0.36526     C
H       0.2483   0.0556   0.1366     H
H       0.2483   0.0556   0.3634     H
H       0.2483   0.1927   0.1366     H
H       0.2483   0.1927   0.3634     H
H       0.2488   0.0126   0.6166     H
H       0.2488   0.0126   0.8834     H
H       0.2488   0.2362   0.6166     H
H       0.2488   0.2362   0.8834     H
C      0.26154  0.39709  0.05592     C
C      0.26154  0.39709  0.44408     C
C      0.26154  0.86445  0.05592     C
C      0.26154  0.86445  0.44408     C
H       0.2647   0.0247   0.6433     H
H       0.2647   0.0247   0.8567     H
H       0.2647     0.24   0.6433     H
H       0.2647     0.24   0.8567     H
C       0.2672   0.1336  0.63995     C
C       0.2672   0.1336  0.86005     C
C      0.27979  0.43175  0.03119     C
C      0.27979  0.43175  0.46881     C
C      0.27979  0.84804  0.03119     C
C      0.27979  0.84804  0.46881     C
H       0.2876   0.2929   0.6411     H
H       0.2876   0.2929   0.8589     H
H       0.2876   0.9947   0.6411     H
H       0.2876   0.9947   0.8589     H
H       0.2929   0.0053   0.1411     H
H       0.2929   0.0053   0.3589     H
H       0.2929   0.2876   0.1411     H
H       0.2929   0.2876   0.3589     H
H       0.2991   0.3871   0.0645     H
H       0.2991   0.3871   0.4355     H
H       0.2991    0.912   0.0645     H
H       0.2991    0.912   0.4355     H
C       0.3068   0.1534  0.61466     C
C       0.3068   0.1534  0.88534     C
C       0.3402   0.1701  0.59409     C
C       0.3402   0.1701  0.90591     C
C      0.36132  0.45506  0.01901     C
C      0.36132  0.45506  0.48099     C
C      0.36132  0.90626  0.01901     C
C      0.36132  0.90626  0.48099     C
O      0.37177  0.48235  0.50407     O
O      0.37177  0.48235  0.99593     O
O      0.37177  0.88942  0.50407     O
O      0.37177  0.88942  0.99593     O
C       0.3772   0.1886    0.568     C
C       0.3772   0.1886    0.932     C
H       0.3871    0.088   0.5645     H
H       0.3871    0.088   0.9355     H
H       0.3871   0.2991   0.5645     H
H       0.3871   0.2991   0.9355     H
C      0.39709  0.13555  0.55592     C
C      0.39709  0.13555  0.94408     C
C      0.39709  0.26154  0.55592     C
C      0.39709  0.26154  0.94408     C
O      0.40988  0.44389  0.03226     O
O      0.40988  0.44389  0.46774     O
O      0.40988  0.96599  0.03226     O
O      0.40988  0.96599  0.46774     O
C      0.43175  0.15196  0.53119     C
C      0.43175  0.15196  0.96881     C
C      0.43175  0.27979  0.53119     C
C      0.43175  0.27979  0.96881     C
O      0.44389  0.03401  0.53226     O
O      0.44389  0.03401  0.96774     O
O      0.44389  0.40988  0.53226     O
O      0.44389  0.40988  0.96774     O
C       0.4493  0.22465  0.51911     C
C       0.4493  0.22465  0.98089     C
C      0.45506  0.09374  0.51901     C
C      0.45506  0.09374  0.98099     C
C      0.45506  0.36132  0.51901     C
C      0.45506  0.36132  0.98099     C
H       0.4733  0.23665   0.5026     H
H       0.4733  0.23665   0.9974     H
Cu     0.47748  0.52253  0.52173    Cu
Cu     0.47748  0.52253  0.97827    Cu
Cu     0.47748  0.95496  0.52173    Cu
Cu     0.47748  0.95496  0.97827    Cu
O      0.48235  0.11058  0.00407     O
O      0.48235  0.11058  0.49593     O
O      0.48235  0.37177  0.00407     O
O      0.48235  0.37177  0.49593     O
O      0.51765  0.62823  0.50407     O
O      0.51765  0.62823  0.99593     O
O      0.51765  0.88942  0.50407     O
O      0.51765  0.88942  0.99593     O
Cu     0.52252  0.04504  0.02173    Cu
Cu     0.52252  0.04504  0.47827    Cu
Cu     0.52252  0.47747  0.02173    Cu
Cu     0.52252  0.47747  0.47827    Cu
H       0.5267  0.76335   0.0026     H
H       0.5267  0.76335   0.4974     H
C      0.54494  0.63868  0.01901     C
C      0.54494  0.63868  0.48099     C
C      0.54494  0.90626  0.01901     C
C      0.54494  0.90626  0.48099     C
C       0.5507  0.77535  0.01911     C
C       0.5507  0.77535  0.48089     C
O      0.55611  0.59012  0.03226     O
O      0.55611  0.59012  0.46774     O
O      0.55611  0.96599  0.03226     O
O      0.55611  0.96599  0.46774     O
C      0.56825  0.72021  0.03119     C
C      0.56825  0.72021  0.46881     C
C      0.56825  0.84804  0.03119     C
C      0.56825  0.84804  0.46881     C
O      0.59012  0.03401  0.53226     O
O      0.59012  0.03401  0.96774     O
O      0.59012  0.55611  0.53226     O
O      0.59012  0.55611  0.96774     O
C      0.60291  0.73846  0.05592     C
C      0.60291  0.73846  0.44408     C
C      0.60291  0.86445  0.05592     C
C      0.60291  0.86445  0.44408     C
H       0.6129   0.7009   0.0645     H
H       0.6129   0.7009   0.4355     H
H       0.6129    0.912   0.0645     H
H       0.6129    0.912   0.4355     H
C       0.6228   0.8114    0.068     C
C       0.6228   0.8114    0.432     C
O      0.62823  0.11058  0.00407     O
O      0.62823  0.11058  0.49593     O
O      0.62823  0.51765  0.00407     O
O      0.62823  0.51765  0.49593     O
C      0.63868  0.09374  0.51901     C
C      0.63868  0.09374  0.98099     C
C      0.63868  0.54494  0.51901     C
C      0.63868  0.54494  0.98099     C
C       0.6598   0.8299  0.09409     C
C       0.6598   0.8299  0.40591     C
C       0.6932   0.8466  0.11466     C
C       0.6932   0.8466  0.38534     C
H       0.7009    0.088   0.5645     H
H       0.7009    0.088   0.9355     H
H       0.7009   0.6129   0.5645     H
H       0.7009   0.6129   0.9355     H
H       0.7071   0.7124   0.6411     H
H       0.7071   0.7124   0.8589     H
H       0.7071   0.9947   0.6411     H
H       0.7071   0.9947   0.8589     H
H       0.7124   0.0053   0.1411     H
H       0.7124   0.0053   0.3589     H
H       0.7124   0.7071   0.1411     H
H       0.7124   0.7071   0.3589     H
C      0.72021  0.15196  0.53119     C
C      0.72021  0.15196  0.96881     C
C      0.72021  0.56825  0.53119     C
C      0.72021  0.56825  0.96881     C
C       0.7328   0.8664  0.13995     C
C       0.7328   0.8664  0.36005     C
H       0.7353     0.76   0.1433     H
H       0.7353     0.76   0.3567     H
H       0.7353   0.9753   0.1433     H
H       0.7353   0.9753   0.3567     H
C      0.73846  0.13555  0.55592     C
C      0.73846  0.13555  0.94408     C
C      0.73846  0.60291  0.55592     C
C      0.73846  0.60291  0.94408     C
C       0.7499   0.8102   0.1509     C
C       0.7499   0.8102   0.3491     C
C       0.7499   0.9397   0.1509     C
C       0.7499   0.9397   0.3491     C
H       0.7512   0.7638   0.1166     H
H       0.7512   0.7638   0.3834     H
H       0.7512   0.9874   0.1166     H
H       0.7512   0.9874   0.3834     H
H       0.7517   0.8073   0.6366     H
H       0.7517   0.8073   0.8634     H
H       0.7517   0.9444   0.6366     H
H       0.7517   0.9444   0.8634     H
C       0.7562   0.7591  0.63474     C
C       0.7562   0.7591  0.86526     C
C       0.7562   0.9971  0.63474     C
C       0.7562   0.9971  0.86526     C
C       0.7591   0.0029  0.13474     C
C       0.7591   0.0029  0.36526     C
C       0.7591   0.7562  0.13474     C
C       0.7591   0.7562  0.36526     C
H         0.76   0.0247   0.6433     H
H         0.76   0.0247   0.8567     H
H         0.76   0.7353   0.6433     H
H         0.76   0.7353   0.8567     H
H      0.76335  0.23665   0.5026     H
H      0.76335  0.23665   0.9974     H
H      0.76335   0.5267   0.5026     H
H      0.76335   0.5267   0.9974     H
H       0.7638   0.0126   0.6166     H
H       0.7638   0.0126   0.8834     H
H       0.7638   0.7512   0.6166     H
H       0.7638   0.7512   0.8834     H
C      0.77535  0.22465  0.51911     C
C      0.77535  0.22465  0.98089     C
C      0.77535   0.5507  0.51911     C
C      0.77535   0.5507  0.98089     C
C       0.7931   0.8374  0.17575     C
C       0.7931   0.8374  0.32425     C
C       0.7931   0.9557  0.17575     C
C       0.7931   0.9557  0.32425     C
H       0.7958   0.7971   0.6841     H
H       0.7958   0.7971   0.8159     H
H       0.7958   0.9987   0.6841     H
H       0.7958   0.9987   0.8159     H
H       0.7971   0.0013   0.1841     H
H       0.7971   0.0013   0.3159     H
H       0.7971   0.7958   0.1841     H
H       0.7971   0.7958   0.3159     H
H       0.8073   0.0556   0.1366     H
H       0.8073   0.0556   0.3634     H
H       0.8073   0.7517   0.1366     H
H       0.8073   0.7517   0.3634     H
C       0.8102   0.0603   0.6509     C
C       0.8102   0.0603   0.8491     C
C       0.8102   0.7499   0.6509     C
C       0.8102   0.7499   0.8491     C
C       0.8104   0.9052  0.18755     C
C       0.8104   0.9052  0.31245     C
C       0.8114   0.1886    0.568     C
C       0.8114   0.1886    0.932     C
C       0.8114   0.6228    0.568     C
C       0.8114   0.6228    0.932     C
C       0.8299   0.1701  0.59409     C
C       0.8299   0.1701  0.90591     C
C       0.8299   0.6598  0.59409     C
C       0.8299   0.6598  0.90591     C
C       0.8374   0.0443  0.67575     C
C       0.8374   0.0443  0.82425     C
C       0.8374   0.7931  0.67575     C
C       0.8374   0.7931  0.82425     C
C       0.8466   0.1534  0.61466     C
C       0.8466   0.1534  0.88534     C
C       0.8466   0.6932  0.61466     C
C       0.8466   0.6932  0.88534     C
C      0.84804  0.27979  0.53119     C
C      0.84804  0.27979  0.96881     C
C      0.84804  0.56825  0.53119     C
C      0.84804  0.56825  0.96881     C
C       0.8567  0.92835  0.21415     C
C       0.8567  0.92835  0.28585     C
C      0.86445  0.26154  0.55592     C
C      0.86445  0.26154  0.94408     C
C      0.86445  0.60291  0.55592     C
C      0.86445  0.60291  0.94408     C
C       0.8664   0.1336  0.63995     C
C       0.8664   0.1336  0.86005     C
C       0.8664   0.7328  0.63995     C
C       0.8664   0.7328  0.86005     C
O       0.8717  0.87898  0.22281     O
O       0.8717  0.87898  0.27719     O
O       0.8717  0.99272  0.22281     O
O       0.8717  0.99272  0.27719     O
O      0.87898  0.00728  0.72281     O
O      0.87898  0.00728  0.77719     O
O      0.87898   0.8717  0.72281     O
O      0.87898   0.8717  0.77719     O
Cu      0.8806   0.9403     0.75    Cu
O      0.88942  0.37177  0.00407     O
O      0.88942  0.37177  0.49593     O
O      0.88942  0.51765  0.00407     O
O      0.88942  0.51765  0.49593     O
C       0.9052   0.0948  0.68755     C
C       0.9052   0.0948  0.81245     C
C       0.9052   0.8104  0.68755     C
C       0.9052   0.8104  0.81245     C
C      0.90626  0.36132  0.51901     C
C      0.90626  0.36132  0.98099     C
C      0.90626  0.54494  0.51901     C
C      0.90626  0.54494  0.98099     C
H        0.912   0.2991   0.5645     H
H        0.912   0.2991   0.9355     H
H        0.912   0.6129   0.5645     H
H        0.912   0.6129   0.9355     H
C      0.92835  0.07165  0.71415     C
C      0.92835  0.07165  0.78585     C
C      0.92835   0.8567  0.71415     C
C      0.92835   0.8567  0.78585     C
C       0.9381   0.1687  0.65099     C
C       0.9381   0.1687  0.84901     C
C       0.9381   0.7694  0.65099     C
C       0.9381   0.7694  0.84901     C
Cu      0.9403   0.0597     0.25    Cu
Cu      0.9403   0.8806     0.25    Cu
H       0.9444   0.1927   0.1366     H
H       0.9444   0.1927   0.3634     H
H       0.9444   0.7517   0.1366     H
H       0.9444   0.7517   0.3634     H
Cu     0.95495  0.47747  0.02173    Cu
Cu     0.95495  0.47747  0.47827    Cu
C       0.9557   0.1626  0.67575     C
C       0.9557   0.1626  0.82425     C
C       0.9557   0.7931  0.67575     C
C       0.9557   0.7931  0.82425     C
O      0.96599  0.40988  0.53226     O
O      0.96599  0.40988  0.96774     O
O      0.96599  0.55611  0.53226     O
O      0.96599  0.55611  0.96774     O
H       0.9753     0.24   0.6433     H
H       0.9753     0.24   0.8567     H
H       0.9753   0.7353   0.6433     H
H       0.9753   0.7353   0.8567     H
H       0.9874   0.2362   0.6166     H
H       0.9874   0.2362   0.8834     H
H       0.9874   0.7512   0.6166     H
H       0.9874   0.7512   0.8834     H
O      0.99272  0.12102  0.72281     O
O      0.99272  0.12102  0.77719     O
O      0.99272   0.8717  0.72281     O
O      0.99272   0.8717  0.77719     O
H       0.9947   0.2876   0.1411     H
H       0.9947   0.2876   0.3589     H
H       0.9947   0.7071   0.1411     H
H       0.9947   0.7071   0.3589     H
C       0.9971   0.2409  0.13474     C
C       0.9971   0.2409  0.36526     C
C       0.9971   0.7562  0.13474     C
C       0.9971   0.7562  0.36526     C
H       0.9987   0.2029   0.1841     H
H       0.9987   0.2029   0.3159     H
H       0.9987   0.7958   0.1841     H
H       0.9987   0.7958   0.3159     H
