data_I
_chemical_name_common  '/home/zhangsd/repos/MofS-CGCNN/ML/data/WS24/clean_cifs/VAGMAT'
_cell_length_a 17.21900
_cell_length_b 23.08470
_cell_length_c 23.08470
_cell_angle_alpha 60.54050
_cell_angle_beta  68.10210
_cell_angle_gamma 68.10220
_space_group_name_H-M_alt      'P 1'


loop_
_space_group_symop_operation_xyz
  'x, y, z' 

loop_
_atom_site_label
_atom_site_fract_x
_atom_site_fract_y
_atom_site_fract_z
_atom_site_type_symbol
Zn     0.02825     0.53     0.03    Zn
O      0.06542  0.38939  0.01133     O
O      0.06542  0.51133  0.88939     O
O      0.10806  0.43425  0.05693     O
O      0.10806  0.55693  0.93425     O
C      0.11193  0.38725  0.04329     C
C      0.11193  0.54329  0.88725     C
H       0.1483   0.2696   0.0334     H
H       0.1483   0.5334   0.7696     H
C      0.17629  0.32094  0.06948     C
C      0.17629  0.56948  0.82094     C
C      0.18338  0.26612  0.05792     C
C      0.18338  0.55792  0.76612     C
H       0.2307   0.3526   0.1096     H
H       0.2307   0.6096   0.8526     H
C      0.23376  0.31559  0.10209     C
C      0.23376  0.60209  0.81559     C
C      0.24293  0.20551  0.08283     C
C      0.24293  0.58283  0.70551     C
H       0.2448   0.1677   0.0773     H
H       0.2448   0.5773   0.6677     H
H       0.2688   0.1431   0.2547     H
H       0.2688   0.7547   0.6431     H
C      0.29422  0.25659  0.12297     C
C      0.29422  0.62297  0.75659     C
C      0.29954  0.20009  0.11563     C
C      0.29954  0.61563  0.70009     C
H       0.3071   0.1096   0.3526     H
H       0.3071   0.8526   0.6096     H
C      0.32622  0.12297  0.25659     C
C      0.32622  0.75659  0.62297     C
H       0.3334   0.2547   0.1431     H
H       0.3334   0.6431   0.7547     H
C      0.34856  0.10209  0.31559     C
C      0.34856  0.81559  0.60209     C
N      0.36153  0.13847  0.13847     N
N      0.36153  0.63847  0.63847     N
H       0.3828   0.0113   0.1745     H
H       0.3828   0.6745   0.5113     H
C      0.38474  0.11563  0.20009     C
C      0.38474  0.70009  0.61563     C
O      0.40076  0.05693  0.43425     O
O      0.40076  0.93425  0.55693     O
C      0.40156  0.09844  0.09844     C
C      0.40156  0.59844  0.59844     C
C      0.40671  0.03188   0.1279     C
C      0.40671   0.6279  0.53188     C
Zn     0.41175     0.03     0.53    Zn
H       0.4314   0.1745   0.0113     H
H       0.4314   0.5113   0.6745     H
C      0.43329  0.06948  0.32094     C
C      0.43329  0.82094  0.56948     C
C      0.43351   0.1279  0.03188     C
C      0.43351  0.53188   0.6279     C
C      0.44789  0.59004  0.49138     C
C      0.44789  0.99138  0.09004     C
H       0.4513   0.2304   0.4666     H
H       0.4513   0.9666   0.7304     H
H       0.4537   0.6123   0.4443     H
H       0.4537   0.9443   0.1123     H
C      0.45753  0.04329  0.38725     C
C      0.45753  0.88725  0.54329     C
O      0.46614  0.11061  0.48867     O
O      0.46614  0.98867  0.61061     O
C      0.46873  0.08283  0.20551     C
C      0.46873  0.70551  0.58283     C
C      0.47069  0.09004  0.99138     C
C      0.47069  0.49138  0.59004     C
C      0.47907  0.02093  0.02093     C
C      0.47907  0.52093  0.52093     C
H       0.4897   0.1123   0.9443     H
H       0.4897   0.4443   0.6123     H
H       0.4898   0.3323   0.4227     H
H       0.4898   0.9227   0.8323     H
C      0.49258  0.05792  0.26612     C
C      0.49258  0.76612  0.55792     C
C      0.50742  0.23388  0.44208     C
C      0.50742  0.94208  0.73388     C
H       0.5102   0.0773   0.1677     H
H       0.5102   0.6677   0.5773     H
H       0.5103   0.5557   0.3877     H
H       0.5103   0.8877   0.0557     H
C      0.52093  0.47907  0.47907     C
C      0.52093  0.97907  0.97907     C
C      0.52931  0.50862  0.40996     C
C      0.52931  0.90996  0.00862     C
C      0.53127  0.29449  0.41717     C
C      0.53127  0.91717  0.79449     C
O      0.53386  0.01133  0.38939     O
O      0.53386  0.88939  0.51133     O
C      0.54247  0.11275  0.45671     C
C      0.54247  0.95671  0.61275     C
H       0.5463   0.0557   0.8877     H
H       0.5463   0.3877   0.5557     H
H       0.5487   0.0334   0.2696     H
H       0.5487   0.7696   0.5334     H
C      0.55211  0.00862  0.90996     C
C      0.55211  0.40996  0.50862     C
C      0.56649  0.46812   0.3721     C
C      0.56649   0.8721  0.96812     C
C      0.56671  0.17906  0.43052     C
C      0.56671  0.93052  0.67906     C
H       0.5686   0.4887   0.3255     H
H       0.5686   0.8255   0.9887     H
Zn     0.58825     0.97     0.47    Zn
C      0.59329   0.3721  0.46812     C
C      0.59329  0.96812   0.8721     C
C      0.59844  0.40156  0.40156     C
C      0.59844  0.90156  0.90156     C
O      0.59924  0.06575  0.44307     O
O      0.59924  0.94307  0.56575     O
C      0.61526  0.29991  0.38437     C
C      0.61526  0.88437  0.79991     C
H       0.6172   0.3255   0.4887     H
H       0.6172   0.9887   0.8255     H
N      0.63847  0.36153  0.36153     N
N      0.63847  0.86153  0.86153     N
C      0.65144  0.18441  0.39791     C
C      0.65144  0.89791  0.68441     C
H       0.6666   0.3569   0.2453     H
H       0.6666   0.7453   0.8569     H
C      0.67378  0.24341  0.37703     C
C      0.67378  0.87703  0.74341     C
H       0.6929   0.1474   0.3904     H
H       0.6929   0.8904   0.6474     H
C      0.70046  0.38437  0.29991     C
C      0.70046  0.79991  0.88437     C
C      0.70578  0.37703  0.24341     C
C      0.70578  0.74341  0.87703     C
H       0.7312   0.2453   0.3569     H
H       0.7312   0.8569   0.7453     H
H       0.7552   0.4227   0.3323     H
H       0.7552   0.8323   0.9227     H
C      0.75707  0.41717  0.29449     C
C      0.75707  0.79449  0.91717     C
C      0.76624  0.39791  0.18441     C
C      0.76624  0.68441  0.89791     C
H       0.7693   0.3904   0.1474     H
H       0.7693   0.6474   0.8904     H
C      0.81662  0.44208  0.23388     C
C      0.81662  0.73388  0.94208     C
C      0.82371  0.43052  0.17906     C
C      0.82371  0.67906  0.93052     C
H       0.8517   0.4666   0.2304     H
H       0.8517   0.7304   0.9666     H
C      0.88807  0.45671  0.11275     C
C      0.88807  0.61275  0.95671     C
O      0.89194  0.44307  0.06575     O
O      0.89194  0.56575  0.94307     O
O      0.93458  0.48867  0.11061     O
O      0.93458  0.61061  0.98867     O
Zn     0.97175     0.47     0.97    Zn
