data_I
_chemical_name_common  '/home/zhangsd/repos/MofS-CGCNN/ML/data/WS24/clean_cifs/VASGII'
_cell_length_a 14.73590
_cell_length_b 24.25690
_cell_length_c 18.69020
_cell_angle_alpha 90.00000
_cell_angle_beta  104.88300
_cell_angle_gamma 90.00000
_space_group_name_H-M_alt      'P 1'


loop_
_space_group_symop_operation_xyz
  'x, y, z' 

loop_
_atom_site_label
_atom_site_fract_x
_atom_site_fract_y
_atom_site_fract_z
_atom_site_type_symbol
In         0.0      0.0      0.0    In
In         0.0      0.5      0.5    In
O       0.0071    0.581    0.357     O
O       0.0071    0.919    0.857     O
H       0.0106   0.0988   0.3778     H
H       0.0106   0.4012   0.8778     H
C        0.011   0.5631   0.9736     C
C        0.011   0.9369   0.4736     C
H       0.0139   0.2086   0.7169     H
H       0.0139   0.2914   0.2169     H
H       0.0169    0.549   0.0226     H
H       0.0169    0.951   0.5226     H
C       0.0202   0.6249   0.9767     C
C       0.0202   0.8751   0.4767     C
H       0.0302   0.6806   0.5147     H
H       0.0302   0.8194   0.0147     H
H       0.0307   0.0879   0.7237     H
H       0.0307   0.4121   0.2237     H
C       0.0311   0.6057   0.4192     C
C       0.0311   0.8943   0.9192     C
C       0.0313   0.7406   0.9718     C
C       0.0313   0.7594   0.4718     C
C       0.0339   0.6983   0.4714     C
C       0.0339   0.8017   0.9714     C
O       0.0362  0.54059   0.6878     O
O       0.0362  0.95941   0.1878     O
C       0.0377    0.215   0.4994     C
C       0.0377    0.285   0.9994     C
C       0.0404   0.0531    0.856     C
C       0.0404   0.4469    0.356     C
C        0.041   0.6663   0.4155     C
C        0.041   0.8337   0.9155     C
C       0.0428   0.1572   0.4963     C
C       0.0428   0.3428   0.9963     C
O       0.0444  0.58272   0.4815     O
O       0.0444  0.91728   0.9815     O
H       0.0494   0.0532   0.5576     H
H       0.0494   0.4468   0.0576     H
H       0.0524   0.6822   0.3734     H
H       0.0524   0.8178   0.8734     H
H       0.0594   0.5477   0.9538     H
H       0.0594   0.9523   0.4538     H
O       0.0685  0.03884   0.9227     O
O       0.0685  0.46116   0.4227     O
C       0.0754   0.1018   0.3957     C
C       0.0754   0.3982   0.8957     C
C       0.0755   0.2199   0.7442     C
C       0.0755   0.2801   0.2442     C
H       0.0829   0.2413   0.2373     H
H       0.0829   0.2587   0.7373     H
H       0.0834   0.2123   0.7959     H
H       0.0834   0.2877   0.2959     H
O        0.086   0.0509   0.2933     O
O        0.086   0.4491   0.7933     O
C       0.0873   0.0999   0.7546     C
C       0.0873   0.4001   0.2546     C
C       0.0917   0.6506   0.9508     C
C       0.0917   0.8494   0.4508     C
H       0.0942   0.2117   0.9785     H
H       0.0942   0.2883   0.4785     H
C       0.0975    0.708   0.9478     C
C       0.0975    0.792   0.4478     C
H       0.1017   0.2424   0.4213     H
H       0.1017   0.2576   0.9213     H
C       0.1045   0.0879   0.8254     C
C       0.1045   0.4121   0.3254     C
C       0.1072   0.1304   0.4575     C
C       0.1072     0.25   0.4726     C
C       0.1072     0.25   0.9726     C
C       0.1072   0.3696   0.9575     C
In     0.11569  0.03315  0.18894    In
In     0.11569  0.46685  0.68894    In
O       0.1256  0.01459   0.0812     O
O       0.1256  0.48541   0.5812     O
C       0.1348   0.0739    0.352     C
C       0.1348   0.4261    0.852     C
C       0.1487   0.1885   0.7166     C
C       0.1487   0.3115   0.2166     C
C       0.1524   0.1313   0.7206     C
C       0.1524   0.3687   0.2206     C
H       0.1549   0.2046   0.1645     H
H       0.1549   0.2954   0.6645     H
H       0.1563   0.6078   0.8792     H
H       0.1563   0.8922   0.3792     H
H       0.1585   0.0259    0.667     H
H       0.1585   0.4741    0.167     H
H       0.1587   0.1017   0.8576     H
H       0.1587   0.3983   0.3576     H
C       0.1627   0.6145   0.9292     C
C       0.1627   0.8855   0.4292     C
H       0.1697   0.2416    0.501     H
H       0.1697   0.2584    0.001     H
H       0.1715   0.7268   0.4222     H
H       0.1715   0.7732   0.9222     H
H       0.1717   0.1337   0.4772     H
H       0.1717   0.3663   0.9772     H
H       0.1729   0.7218   0.8716     H
H       0.1729   0.7782   0.3716     H
C       0.1767   0.7338   0.9213     C
C       0.1767   0.7662   0.4213     C
H       0.1835   0.0129     0.07     H
H       0.1835   0.4871     0.57     H
O       0.1922  0.10868   0.1938     O
O       0.1922  0.39132   0.6938     O
C       0.2108   0.2216   0.1888     C
C       0.2108   0.2784   0.6888     C
C       0.2141   0.2174   0.6873     C
C       0.2141   0.2826   0.1873     C
C       0.2178   0.0392   0.6962     C
C       0.2178   0.4608   0.1962     C
C       0.2186   0.1013   0.6944     C
C       0.2186   0.3987   0.1944     C
O       0.2209  0.07468   0.3734     O
O       0.2209  0.42532   0.8734     O
H       0.2272   0.0269   0.7464     H
H       0.2272   0.4731   0.2464     H
C        0.233   0.5921   0.9772     C
C        0.233   0.9079   0.4772     C
H       0.2358   0.7226   0.9532     H
H       0.2358   0.7774   0.4532     H
O       0.2392  0.50835   0.7406     O
O       0.2392  0.99165   0.2406     O
H       0.2402   0.5998    0.027     H
H       0.2402   0.9002    0.527     H
H       0.2541   0.5422   0.7232     H
H       0.2541   0.9578   0.2232     H
H       0.2673   0.0252   0.6765     H
H       0.2673   0.4748   0.1765     H
C       0.2699   0.1291   0.2295     C
C       0.2699   0.3709   0.7295     C
C       0.2808   0.1885   0.6611     C
C       0.2808   0.3115   0.1611     C
C       0.2827   0.1892   0.2227     C
C       0.2827   0.3108   0.7227     C
C       0.2838   0.1307   0.6663     C
C       0.2838   0.3693   0.1663     C
O       0.2897  0.54143   0.8895     O
O       0.2897  0.95857   0.3895     O
C       0.3028   0.5545   0.9567     C
C       0.3028   0.9455   0.4567     C
H       0.3168   0.2377   0.5842     H
H       0.3168   0.2623   0.0842     H
In     0.32801  0.02938  0.33286    In
In     0.32801  0.47062  0.83286    In
O       0.3371  0.10311   0.2714     O
O       0.3371  0.39689   0.7714     O
H       0.3416   0.2047   0.2422     H
H       0.3416   0.2953   0.7422     H
C       0.3501   0.2173   0.6269     C
C       0.3501   0.2827   0.1269     C
C       0.3591    0.101   0.6421     C
C       0.3591    0.399   0.1421     C
H       0.3592   0.1037   0.5925     H
H       0.3592   0.3963   0.0925     H
O       0.3707  0.53856   0.0095     O
O       0.3707  0.96144   0.5095     O
H       0.3879   0.2421   0.6624     H
H       0.3879   0.2579   0.1624     H
H       0.3898   0.1904   0.6124     H
H       0.3898   0.3096   0.1124     H
O       0.4249   0.0594   0.4264     O
O       0.4249   0.4406   0.9264     O
C       0.4268   0.0705   0.6862     C
C       0.4268   0.4295   0.1862     C
H       0.4294    0.067   0.7362     H
H       0.4294    0.433   0.2362     H
H       0.4343    0.097    0.435     H
H       0.4343    0.403    0.935     H
O       0.4444  0.51077   0.8024     O
O       0.4444  0.98923   0.3024     O
O       0.4961  0.05295   0.5889     O
O       0.4961  0.44705   0.0889     O
C       0.4966   0.0427   0.6554     C
C       0.4966   0.4573   0.1554     C
In         0.5      0.0      0.5    In
In         0.5      0.5      0.0    In
C       0.5034   0.5427   0.8446     C
C       0.5034   0.9573   0.3446     C
O       0.5039  0.55295   0.9111     O
O       0.5039  0.94705   0.4111     O
O       0.5556  0.01077   0.6976     O
O       0.5556  0.48923   0.1976     O
H       0.5657    0.597    0.065     H
H       0.5657    0.903    0.565     H
H       0.5706    0.567   0.7638     H
H       0.5706    0.933   0.2638     H
C       0.5732   0.5705   0.8138     C
C       0.5732   0.9295   0.3138     C
O       0.5751   0.5594   0.0736     O
O       0.5751   0.9406   0.5736     O
H       0.6102   0.6904   0.8876     H
H       0.6102   0.8096   0.3876     H
H       0.6121   0.7421   0.8376     H
H       0.6121   0.7579   0.3376     H
O       0.6293  0.03856   0.4905     O
O       0.6293  0.46144   0.9905     O
H       0.6408   0.6037   0.9075     H
H       0.6408   0.8963   0.4075     H
C       0.6409    0.601   0.8579     C
C       0.6409    0.899   0.3579     C
C       0.6499   0.7173   0.8731     C
C       0.6499   0.7827   0.3731     C
H       0.6584   0.7047   0.2578     H
H       0.6584   0.7953   0.7578     H
O       0.6629  0.60311   0.2286     O
O       0.6629  0.89689   0.7286     O
In     0.67199  0.52938  0.16714    In
In     0.67199  0.97062  0.66714    In
H       0.6832   0.7377   0.9158     H
H       0.6832   0.7623   0.4158     H
C       0.6972   0.0545   0.5433     C
C       0.6972   0.4455   0.0433     C
O       0.7103  0.04143   0.6105     O
O       0.7103  0.45857   0.1105     O
C       0.7162   0.6307   0.8337     C
C       0.7162   0.8693   0.3337     C
C       0.7173   0.6892   0.2773     C
C       0.7173   0.8108   0.7773     C
C       0.7192   0.6885   0.8389     C
C       0.7192   0.8115   0.3389     C
C       0.7301   0.6291   0.2705     C
C       0.7301   0.8709   0.7705     C
H       0.7327   0.5252   0.8235     H
H       0.7327   0.9748   0.3235     H
H       0.7459   0.0422   0.7768     H
H       0.7459   0.4578   0.2768     H
H       0.7598   0.0998    0.473     H
H       0.7598   0.4002    0.973     H
O       0.7608  0.00835   0.7594     O
O       0.7608  0.49165   0.2594     O
H       0.7642   0.2226   0.5468     H
H       0.7642   0.2774   0.0468     H
C        0.767   0.0921   0.5228     C
C        0.767   0.4079   0.0228     C
H       0.7728   0.5269   0.7536     H
H       0.7728   0.9731   0.2536     H
O       0.7791  0.57468   0.1266     O
O       0.7791  0.92532   0.6266     O
C       0.7814   0.6013   0.8056     C
C       0.7814   0.8987   0.3056     C
C       0.7822   0.5392   0.8038     C
C       0.7822   0.9608   0.3038     C
C       0.7859   0.7174   0.8127     C
C       0.7859   0.7826   0.3127     C
C       0.7892   0.7216   0.3112     C
C       0.7892   0.7784   0.8112     C
O       0.8078  0.60868   0.3062     O
O       0.8078  0.89132   0.8062     O
H       0.8165   0.5129     0.43     H
H       0.8165   0.9871     0.93     H
C       0.8233   0.2338   0.5787     C
C       0.8233   0.2662   0.0787     C
H       0.8271   0.2218   0.6284     H
H       0.8271   0.2782   0.1284     H
H       0.8283   0.6337   0.0228     H
H       0.8283   0.8663   0.5228     H
H       0.8285   0.2268   0.0778     H
H       0.8285   0.2732   0.5778     H
H       0.8303   0.7416    0.999     H
H       0.8303   0.7584    0.499     H
C       0.8373   0.1145   0.5708     C
C       0.8373   0.3855   0.0708     C
H       0.8413   0.6017   0.6424     H
H       0.8413   0.8983   0.1424     H
H       0.8415   0.5259    0.833     H
H       0.8415   0.9741    0.333     H
H       0.8437   0.1078   0.6208     H
H       0.8437   0.3922   0.1208     H
H       0.8451   0.7046   0.3355     H
H       0.8451   0.7954   0.8355     H
C       0.8476   0.6313   0.7794     C
C       0.8476   0.8687   0.2794     C
C       0.8513   0.6885   0.7834     C
C       0.8513   0.8115   0.2834     C
C       0.8652   0.5739    0.148     C
C       0.8652   0.9261    0.648     C
O       0.8744  0.51459   0.4188     O
O       0.8744  0.98541   0.9188     O
In     0.88431  0.53315  0.31106    In
In     0.88431  0.96685  0.81106    In
C       0.8928   0.6304   0.0425     C
C       0.8928     0.75   0.0274     C
C       0.8928     0.75   0.5274     C
C       0.8928   0.8696   0.5425     C
C       0.8955   0.5879   0.6746     C
C       0.8955   0.9121   0.1746     C
H       0.8983   0.7424   0.0787     H
H       0.8983   0.7576   0.5787     H
C       0.9025    0.208   0.5522     C
C       0.9025    0.292   0.0522     C
H       0.9058   0.7117   0.5215     H
H       0.9058   0.7883   0.0215     H
C       0.9083   0.1506   0.5492     C
C       0.9083   0.3494   0.0492     C
C       0.9127   0.5999   0.7454     C
C       0.9127   0.9001   0.2454     C
O        0.914   0.5509   0.2067     O
O        0.914   0.9491   0.7067     O
H       0.9166   0.7123   0.7041     H
H       0.9166   0.7877   0.2041     H
H       0.9171   0.7413   0.2627     H
H       0.9171   0.7587   0.7627     H
C       0.9245   0.7199   0.7558     C
C       0.9245   0.7801   0.2558     C
C       0.9246   0.6018   0.1043     C
C       0.9246   0.8982   0.6043     C
O       0.9315  0.53884   0.5773     O
O       0.9315  0.96116   0.0773     O
H       0.9406   0.0477   0.5462     H
H       0.9406   0.4523   0.0462     H
H       0.9476   0.1822   0.1266     H
H       0.9476   0.3178   0.6266     H
H       0.9506   0.5532   0.9424     H
H       0.9506   0.9468   0.4424     H
O       0.9556  0.08272   0.0185     O
O       0.9556  0.41728   0.5185     O
C       0.9572   0.6572   0.0037     C
C       0.9572   0.8428   0.5037     C
C        0.959   0.1663   0.0845     C
C        0.959   0.3337   0.5845     C
C       0.9596   0.5531    0.644     C
C       0.9596   0.9469    0.144     C
C       0.9623    0.715   0.0006     C
C       0.9623    0.785   0.5006     C
O       0.9638  0.04059   0.8122     O
O       0.9638  0.45941   0.3122     O
C       0.9661   0.1983   0.0286     C
C       0.9661   0.3017   0.5286     C
C       0.9687   0.2406   0.5282     C
C       0.9687   0.2594   0.0282     C
C       0.9689   0.1057   0.0808     C
C       0.9689   0.3943   0.5808     C
H       0.9693   0.5879   0.7763     H
H       0.9693   0.9121   0.2763     H
H       0.9698   0.1806   0.9853     H
H       0.9698   0.3194   0.4853     H
C       0.9798   0.1249   0.5233     C
C       0.9798   0.3751   0.0233     C
H       0.9831    0.049   0.4774     H
H       0.9831    0.451   0.9774     H
H       0.9861   0.7086   0.7831     H
H       0.9861   0.7914   0.2831     H
C        0.989   0.0631   0.5264     C
C        0.989   0.4369   0.0264     C
H       0.9894   0.5988   0.1222     H
H       0.9894   0.9012   0.6222     H
O       0.9929    0.081    0.143     O
O       0.9929    0.419    0.643     O
