data_I
_chemical_name_common  '/home/zhangsd/repos/MofS-CGCNN/ML/data/WS24/clean_cifs/VEMHIF'
_cell_length_a 13.24330
_cell_length_b 26.33970
_cell_length_c 26.33970
_cell_angle_alpha 120.00000
_cell_angle_beta  90.00000
_cell_angle_gamma 90.00000
_space_group_name_H-M_alt      'P 1'


loop_
_space_group_symop_operation_xyz
  'x, y, z' 

loop_
_atom_site_label
_atom_site_fract_x
_atom_site_fract_y
_atom_site_fract_z
_atom_site_type_symbol
O          0.0    0.068      0.0     O
O          0.0    0.068    0.068     O
Cd         0.0  0.15888  0.15888    Cd
N          0.0   0.2505      0.0     N
N          0.0   0.2505   0.2505     N
C          0.0   0.2517   0.5033     C
H          0.0   0.2724   0.5449     H
C          0.0   0.4967   0.7484     C
C          0.0   0.5033   0.2516     C
H          0.0   0.7276   0.4551     H
C          0.0   0.7484   0.2517     C
N          0.0   0.7495      0.0     N
N          0.0   0.7495   0.7495     N
Cd         0.0  0.84112      0.0    Cd
Cd         0.0  0.84112  0.84112    Cd
O          0.0    0.932    0.932     O
N          0.0      1.0   0.2505     N
O          0.0      1.0    0.932     O
C       0.0491   0.3265      0.0     C
C       0.0491   0.3265   0.3265     C
C       0.0491   0.6735      0.0     C
C       0.0491   0.6735   0.6735     C
C       0.0491      1.0   0.3265     C
C       0.0491      1.0   0.6735     C
N       0.0492   0.2071   0.7928     N
N       0.0492   0.2072   0.4143     N
N       0.0492   0.4143   0.2071     N
N       0.0492   0.5857   0.7929     N
N       0.0492   0.7928   0.5857     N
N       0.0492   0.7929   0.2072     N
N       0.0812   0.2349    0.765     N
N       0.0812    0.235   0.4699     N
N       0.0812   0.4699   0.2349     N
N       0.0812   0.5301   0.7651     N
N       0.0812    0.765   0.5301     N
N       0.0812   0.7651    0.235     N
N       0.0814      0.0   0.2783     N
N       0.0814      0.0   0.7217     N
N       0.0814   0.2783      0.0     N
N       0.0814   0.2783   0.2783     N
N       0.0814   0.7217      0.0     N
N       0.0814   0.7217   0.7217     N
N       0.1276   0.0742   0.1983     N
N       0.1276   0.0742   0.8759     N
N       0.1276   0.1241   0.1983     N
N       0.1276   0.1241   0.9258     N
N       0.1276   0.1983   0.0742     N
N       0.1276   0.1983   0.1241     N
N       0.1276   0.8017   0.8759     N
N       0.1276   0.8017   0.9258     N
N       0.1276   0.8759   0.0742     N
N       0.1276   0.8759   0.8017     N
N       0.1276   0.9258   0.1241     N
N       0.1276   0.9258   0.8017     N
C       0.1584   0.1756   0.5621     C
C       0.1584   0.1756   0.6135     C
C       0.1584   0.3865   0.5621     C
C       0.1584   0.3865   0.8244     C
C       0.1584   0.4379   0.6135     C
C       0.1584   0.4379   0.8244     C
C       0.1584   0.5621   0.1756     C
C       0.1584   0.5621   0.3865     C
C       0.1584   0.6135   0.1756     C
C       0.1584   0.6135   0.4379     C
C       0.1584   0.8244   0.3865     C
C       0.1584   0.8244   0.4379     C
N       0.2083   0.0723   0.2266     N
N       0.2083   0.0723   0.8457     N
N       0.2083   0.1543   0.2266     N
N       0.2083   0.1543   0.9277     N
N       0.2083   0.2266   0.0723     N
N       0.2083   0.2266   0.1543     N
N       0.2083   0.7734   0.8457     N
N       0.2083   0.7734   0.9277     N
N       0.2083   0.8457   0.0723     N
N       0.2083   0.8457   0.7734     N
N       0.2083   0.9277   0.1543     N
N       0.2083   0.9277   0.7734     N
N       0.2134   0.2218   0.5697     N
N       0.2134   0.2218   0.6521     N
N       0.2134   0.3479   0.5697     N
N       0.2134   0.3479   0.7782     N
N       0.2134   0.4303   0.6521     N
N       0.2134   0.4303   0.7782     N
N       0.2134   0.5697   0.2218     N
N       0.2134   0.5697   0.3479     N
N       0.2134   0.6521   0.2218     N
N       0.2134   0.6521   0.4303     N
N       0.2134   0.7782   0.3479     N
N       0.2134   0.7782   0.4303     N
N       0.2451   0.1212   0.3771     N
N       0.2451   0.1212   0.7441     N
N       0.2451   0.2559   0.3771     N
N       0.2451   0.2559   0.8788     N
N       0.2451   0.3771   0.1212     N
N       0.2451   0.3771   0.2559     N
N       0.2451   0.6229   0.7441     N
N       0.2451   0.6229   0.8788     N
N       0.2451   0.7441   0.1212     N
N       0.2451   0.7441   0.6229     N
N       0.2451   0.8788   0.2559     N
N       0.2451   0.8788   0.6229     N
Cd     0.24624 0.248965  0.49793    Cd
Cd     0.24624 0.248965 0.751035    Cd
Cd     0.24624  0.49793 0.248965    Cd
Cd     0.24624  0.50207 0.751035    Cd
Cd     0.24624 0.751035 0.248965    Cd
Cd     0.24624 0.751035  0.50207    Cd
N       0.2468   0.2494   0.6247     N
N       0.2468   0.3753   0.6247     N
N       0.2468   0.3753   0.7506     N
N       0.2468   0.6247   0.2494     N
N       0.2468   0.6247   0.3753     N
N       0.2468   0.7506   0.3753     N
Cd      0.2488      0.0  0.24939    Cd
Cd      0.2488      0.0  0.75061    Cd
Cd      0.2488  0.24939  0.24939    Cd
Cd      0.2488  0.24939      1.0    Cd
Cd      0.2488  0.75061      0.0    Cd
Cd      0.2488  0.75061  0.75061    Cd
C       0.2576   0.1217   0.2434     C
C       0.2576   0.1217   0.8783     C
C       0.2576   0.2434   0.1217     C
C       0.2576   0.7566   0.8783     C
C       0.2576   0.8783   0.1217     C
C       0.2576   0.8783   0.7566     C
N       0.2895   0.1523   0.4286     N
N       0.2895   0.1523   0.7237     N
N       0.2895   0.2763   0.4286     N
N       0.2895   0.2763   0.8477     N
N       0.2895   0.4286   0.1523     N
N       0.2895   0.4286   0.2763     N
N       0.2895   0.5714   0.7237     N
N       0.2895   0.5714   0.8477     N
N       0.2895   0.7237   0.1523     N
N       0.2895   0.7237   0.5714     N
N       0.2895   0.8477   0.2763     N
N       0.2895   0.8477   0.5714     N
N       0.2936   0.0716   0.3442     N
N       0.2936   0.0716   0.7274     N
N       0.2936   0.2726   0.3442     N
N       0.2936   0.2726   0.9284     N
N       0.2936   0.3442   0.0716     N
N       0.2936   0.3442   0.2726     N
N       0.2936   0.6558   0.7274     N
N       0.2936   0.6558   0.9284     N
N       0.2936   0.7274   0.0716     N
N       0.2936   0.7274   0.6558     N
N       0.2936   0.9284   0.2726     N
N       0.2936   0.9284   0.6558     N
H       0.3196   0.1322   0.2644     H
H       0.3196   0.1322   0.8678     H
H       0.3196   0.2644   0.1322     H
H       0.3196   0.7356   0.8678     H
H       0.3196   0.8678   0.1322     H
H       0.3196   0.8678   0.7356     H
Cd     0.34436 0.33333333 0.66666667    Cd
Cd     0.34436 0.66666667 0.33333333    Cd
C       0.3703   0.1221   0.4262     C
C       0.3703   0.1221   0.6959     C
C       0.3703   0.3041   0.4262     C
C       0.3703   0.3041   0.8779     C
C       0.3703   0.4262   0.1221     C
C       0.3703   0.4262   0.3041     C
C       0.3703   0.5738   0.6959     C
C       0.3703   0.5738   0.8779     C
C       0.3703   0.6959   0.1221     C
C       0.3703   0.6959   0.5738     C
C       0.3703   0.8779   0.3041     C
C       0.3703   0.8779   0.5738     C
N       0.3735   0.0717   0.3757     N
N       0.3735   0.0717    0.696     N
N       0.3735    0.304   0.3757     N
N       0.3735    0.304   0.9283     N
N       0.3735   0.3757   0.0717     N
N       0.3735   0.3757    0.304     N
N       0.3735   0.6243    0.696     N
N       0.3735   0.6243   0.9283     N
N       0.3735    0.696   0.0717     N
N       0.3735    0.696   0.6243     N
N       0.3735   0.9283    0.304     N
N       0.3735   0.9283   0.6243     N
N       0.4176   0.2638   0.5276     N
N       0.4176   0.2638   0.7362     N
N       0.4176   0.4724   0.7362     N
N       0.4176   0.5276   0.2638     N
N       0.4176   0.7362   0.2638     N
N       0.4176   0.7362   0.4724     N
N       0.4184      0.0   0.7791     N
N       0.4184   0.2209      0.0     N
N       0.4184   0.2209   0.2209     N
N       0.4184   0.7791      0.0     N
N       0.4184   0.7791   0.7791     N
N       0.4184      1.0   0.2209     N
H       0.4195   0.1346   0.4564     H
H       0.4195   0.1346   0.6782     H
H       0.4195   0.3218   0.4564     H
H       0.4195   0.3218   0.8654     H
H       0.4195   0.4564   0.1346     H
H       0.4195   0.4564   0.3218     H
H       0.4195   0.5436   0.6782     H
H       0.4195   0.5436   0.8654     H
H       0.4195   0.6782   0.1346     H
H       0.4195   0.6782   0.5436     H
H       0.4195   0.8654   0.3218     H
H       0.4195   0.8654   0.5436     H
N       0.4504  0.29185   0.5837     N
N       0.4504  0.29185  0.70815     N
N       0.4504   0.4163  0.70815     N
N       0.4504   0.5837  0.29185     N
N       0.4504  0.70815  0.29185     N
N       0.4504  0.70815   0.4163     N
C       0.4514   0.1727      0.0     C
C       0.4514   0.1727   0.1727     C
C       0.4514   0.8273      0.0     C
C       0.4514   0.8273   0.8273     C
C       0.4514      1.0   0.1727     C
C       0.4514      1.0   0.8273     C
N          0.5      0.0   0.2506     N
O          0.5      0.0    0.569     O
H          0.5   0.2269   0.4539     H
H          0.5   0.2269    0.773     H
C          0.5   0.2477   0.4955     C
C          0.5   0.2478   0.7523     C
N          0.5   0.2506   0.2506     N
N          0.5   0.2506      1.0     N
Cd         0.5  0.34182      0.0    Cd
Cd         0.5  0.34182  0.34182    Cd
O          0.5    0.431      0.0     O
O          0.5    0.431    0.431     O
H          0.5   0.4539   0.2269     H
C          0.5   0.4955   0.2478     C
C          0.5   0.5045   0.7522     C
H          0.5   0.5461    0.773     H
O          0.5    0.569      0.0     O
O          0.5    0.569    0.569     O
Cd         0.5  0.65818      0.0    Cd
Cd         0.5  0.65818  0.65818    Cd
N          0.5   0.7494      0.0     N
N          0.5   0.7494   0.7494     N
C          0.5   0.7522   0.2477     C
C          0.5   0.7523   0.5045     C
H          0.5    0.773   0.2269     H
H          0.5    0.773   0.5461     H
Cd         0.5      1.0  0.34182    Cd
O          0.5      1.0    0.431     O
Cd         0.5      1.0  0.65818    Cd
N          0.5      1.0   0.7494     N
C       0.5486   0.1727      0.0     C
C       0.5486   0.1727   0.1727     C
C       0.5486   0.8273      0.0     C
C       0.5486   0.8273   0.8273     C
C       0.5486      1.0   0.1727     C
C       0.5486      1.0   0.8273     C
N       0.5496  0.29185   0.5837     N
N       0.5496  0.29185  0.70815     N
N       0.5496   0.4163  0.70815     N
N       0.5496   0.5837  0.29185     N
N       0.5496  0.70815  0.29185     N
N       0.5496  0.70815   0.4163     N
H       0.5805   0.1346   0.4564     H
H       0.5805   0.1346   0.6782     H
H       0.5805   0.3218   0.4564     H
H       0.5805   0.3218   0.8654     H
H       0.5805   0.4564   0.1346     H
H       0.5805   0.4564   0.3218     H
H       0.5805   0.5436   0.6782     H
H       0.5805   0.5436   0.8654     H
H       0.5805   0.6782   0.1346     H
H       0.5805   0.6782   0.5436     H
H       0.5805   0.8654   0.3218     H
H       0.5805   0.8654   0.5436     H
N       0.5816      0.0   0.7791     N
N       0.5816   0.2209      0.0     N
N       0.5816   0.2209   0.2209     N
N       0.5816   0.7791      0.0     N
N       0.5816   0.7791   0.7791     N
N       0.5816      1.0   0.2209     N
N       0.5824   0.2638   0.5276     N
N       0.5824   0.2638   0.7362     N
N       0.5824   0.4724   0.7362     N
N       0.5824   0.5276   0.2638     N
N       0.5824   0.7362   0.2638     N
N       0.5824   0.7362   0.4724     N
N       0.6265   0.0717   0.3757     N
N       0.6265   0.0717    0.696     N
N       0.6265    0.304   0.3757     N
N       0.6265    0.304   0.9283     N
N       0.6265   0.3757   0.0717     N
N       0.6265   0.3757    0.304     N
N       0.6265   0.6243    0.696     N
N       0.6265   0.6243   0.9283     N
N       0.6265    0.696   0.0717     N
N       0.6265    0.696   0.6243     N
N       0.6265   0.9283    0.304     N
N       0.6265   0.9283   0.6243     N
C       0.6297   0.1221   0.4262     C
C       0.6297   0.1221   0.6959     C
C       0.6297   0.3041   0.4262     C
C       0.6297   0.3041   0.8779     C
C       0.6297   0.4262   0.1221     C
C       0.6297   0.4262   0.3041     C
C       0.6297   0.5738   0.6959     C
C       0.6297   0.5738   0.8779     C
C       0.6297   0.6959   0.1221     C
C       0.6297   0.6959   0.5738     C
C       0.6297   0.8779   0.3041     C
C       0.6297   0.8779   0.5738     C
Cd     0.65564 0.33333333 0.66666667    Cd
Cd     0.65564 0.66666667 0.33333333    Cd
H       0.6804   0.1322   0.2644     H
H       0.6804   0.1322   0.8678     H
H       0.6804   0.2644   0.1322     H
H       0.6804   0.7356   0.8678     H
H       0.6804   0.8678   0.1322     H
H       0.6804   0.8678   0.7356     H
N       0.7064   0.0716   0.3442     N
N       0.7064   0.0716   0.7274     N
N       0.7064   0.2726   0.3442     N
N       0.7064   0.2726   0.9284     N
N       0.7064   0.3442   0.0716     N
N       0.7064   0.3442   0.2726     N
N       0.7064   0.6558   0.7274     N
N       0.7064   0.6558   0.9284     N
N       0.7064   0.7274   0.0716     N
N       0.7064   0.7274   0.6558     N
N       0.7064   0.9284   0.2726     N
N       0.7064   0.9284   0.6558     N
N       0.7105   0.1523   0.4286     N
N       0.7105   0.1523   0.7237     N
N       0.7105   0.2763   0.4286     N
N       0.7105   0.2763   0.8477     N
N       0.7105   0.4286   0.1523     N
N       0.7105   0.4286   0.2763     N
N       0.7105   0.5714   0.7237     N
N       0.7105   0.5714   0.8477     N
N       0.7105   0.7237   0.1523     N
N       0.7105   0.7237   0.5714     N
N       0.7105   0.8477   0.2763     N
N       0.7105   0.8477   0.5714     N
C       0.7424   0.1217   0.2434     C
C       0.7424   0.1217   0.8783     C
C       0.7424   0.2434   0.1217     C
C       0.7424   0.7566   0.8783     C
C       0.7424   0.8783   0.1217     C
C       0.7424   0.8783   0.7566     C
Cd      0.7512      0.0  0.24939    Cd
Cd      0.7512      0.0  0.75061    Cd
Cd      0.7512  0.24939  0.24939    Cd
Cd      0.7512  0.24939      1.0    Cd
Cd      0.7512  0.75061      0.0    Cd
Cd      0.7512  0.75061  0.75061    Cd
N       0.7532   0.2494   0.6247     N
N       0.7532   0.3753   0.6247     N
N       0.7532   0.3753   0.7506     N
N       0.7532   0.6247   0.2494     N
N       0.7532   0.6247   0.3753     N
N       0.7532   0.7506   0.3753     N
Cd     0.75376 0.248965  0.49793    Cd
Cd     0.75376 0.248965 0.751035    Cd
Cd     0.75376  0.49793 0.248965    Cd
Cd     0.75376  0.50207 0.751035    Cd
Cd     0.75376 0.751035 0.248965    Cd
Cd     0.75376 0.751035  0.50207    Cd
N       0.7549   0.1212   0.3771     N
N       0.7549   0.1212   0.7441     N
N       0.7549   0.2559   0.3771     N
N       0.7549   0.2559   0.8788     N
N       0.7549   0.3771   0.1212     N
N       0.7549   0.3771   0.2559     N
N       0.7549   0.6229   0.7441     N
N       0.7549   0.6229   0.8788     N
N       0.7549   0.7441   0.1212     N
N       0.7549   0.7441   0.6229     N
N       0.7549   0.8788   0.2559     N
N       0.7549   0.8788   0.6229     N
N       0.7866   0.2218   0.5697     N
N       0.7866   0.2218   0.6521     N
N       0.7866   0.3479   0.5697     N
N       0.7866   0.3479   0.7782     N
N       0.7866   0.4303   0.6521     N
N       0.7866   0.4303   0.7782     N
N       0.7866   0.5697   0.2218     N
N       0.7866   0.5697   0.3479     N
N       0.7866   0.6521   0.2218     N
N       0.7866   0.6521   0.4303     N
N       0.7866   0.7782   0.3479     N
N       0.7866   0.7782   0.4303     N
N       0.7917   0.0723   0.2266     N
N       0.7917   0.0723   0.8457     N
N       0.7917   0.1543   0.2266     N
N       0.7917   0.1543   0.9277     N
N       0.7917   0.2266   0.0723     N
N       0.7917   0.2266   0.1543     N
N       0.7917   0.7734   0.8457     N
N       0.7917   0.7734   0.9277     N
N       0.7917   0.8457   0.0723     N
N       0.7917   0.8457   0.7734     N
N       0.7917   0.9277   0.1543     N
N       0.7917   0.9277   0.7734     N
C       0.8416   0.1756   0.5621     C
C       0.8416   0.1756   0.6135     C
C       0.8416   0.3865   0.5621     C
C       0.8416   0.3865   0.8244     C
C       0.8416   0.4379   0.6135     C
C       0.8416   0.4379   0.8244     C
C       0.8416   0.5621   0.1756     C
C       0.8416   0.5621   0.3865     C
C       0.8416   0.6135   0.1756     C
C       0.8416   0.6135   0.4379     C
C       0.8416   0.8244   0.3865     C
C       0.8416   0.8244   0.4379     C
N       0.8724   0.0742   0.1983     N
N       0.8724   0.0742   0.8759     N
N       0.8724   0.1241   0.1983     N
N       0.8724   0.1241   0.9258     N
N       0.8724   0.1983   0.0742     N
N       0.8724   0.1983   0.1241     N
N       0.8724   0.8017   0.8759     N
N       0.8724   0.8017   0.9258     N
N       0.8724   0.8759   0.0742     N
N       0.8724   0.8759   0.8017     N
N       0.8724   0.9258   0.1241     N
N       0.8724   0.9258   0.8017     N
N       0.9186      0.0   0.2783     N
N       0.9186      0.0   0.7217     N
N       0.9186   0.2783      0.0     N
N       0.9186   0.2783   0.2783     N
N       0.9186   0.7217      0.0     N
N       0.9186   0.7217   0.7217     N
N       0.9188   0.2349   0.4699     N
N       0.9188    0.235   0.7651     N
N       0.9188   0.4699    0.235     N
N       0.9188   0.5301    0.765     N
N       0.9188    0.765   0.2349     N
N       0.9188   0.7651   0.5301     N
N       0.9508   0.2071   0.4143     N
N       0.9508   0.2072   0.7929     N
N       0.9508   0.4143   0.2072     N
N       0.9508   0.5857   0.7928     N
N       0.9508   0.7928   0.2071     N
N       0.9508   0.7929   0.5857     N
C       0.9509   0.3265      0.0     C
C       0.9509   0.3265   0.3265     C
C       0.9509   0.6735      0.0     C
C       0.9509   0.6735   0.6735     C
C       0.9509      1.0   0.3265     C
C       0.9509      1.0   0.6735     C
O          1.0      0.0    0.068     O
N          1.0      0.0   0.7495     N
Cd         1.0  0.15888      1.0    Cd
C          1.0   0.2516   0.7483     C
H          1.0   0.2725   0.7276     H
H          1.0   0.4551   0.7275     H
H          1.0   0.5449   0.2725     H
H          1.0   0.7275   0.2724     H
C          1.0   0.7483   0.4967     C
O          1.0    0.932      0.0     O
Cd         1.0      1.0  0.15888    Cd
Cd         1.0      1.0  0.84112    Cd
