data_I
_chemical_name_common  '/home/zhangsd/repos/MofS-CGCNN/ML/data/WS24/clean_cifs/VIDWIQ'
_cell_length_a 16.82900
_cell_length_b 14.35800
_cell_length_c 11.97700
_cell_angle_alpha 90.00000
_cell_angle_beta  118.15000
_cell_angle_gamma 90.00000
_space_group_name_H-M_alt      'P 1'


loop_
_space_group_symop_operation_xyz
  'x, y, z' 

loop_
_atom_site_label
_atom_site_fract_x
_atom_site_fract_y
_atom_site_fract_z
_atom_site_type_symbol
O          0.0  0.08758     0.75     O
O          0.0  0.44141  0.20721     O
O          0.0  0.44141  0.29279     O
O          0.0  0.55859  0.70721     O
O          0.0  0.55859  0.79279     O
O          0.0  0.91242     0.25     O
O      0.00473  0.25735   0.6202     O
O      0.00473  0.74265   0.1202     O
H       0.0056    0.442   0.7112     H
H       0.0056    0.558   0.2112     H
H       0.0116   0.3532   0.0452     H
H       0.0116   0.6468   0.5452     H
C       0.0143   0.4918   0.2053     C
C       0.0143   0.5082   0.7053     C
H       0.0341   0.0493   0.7392     H
H       0.0341   0.9507   0.2392     H
C      0.04315   0.3846   0.4909     C
C      0.04315   0.6154   0.9909     C
C         0.06   0.4499   0.4201     C
C         0.06   0.5501   0.9201     C
H       0.0741    0.481   0.2147     H
H       0.0741    0.519   0.7147     H
C      0.08057   0.2924   0.6836     C
C      0.08057   0.7076   0.1836     C
Mg     0.09742   0.1768  0.90281    Mg
Mg     0.09742   0.8232  0.40281    Mg
C      0.10608   0.3651   0.6145     C
C      0.10608   0.6349   0.1145     C
O      0.13345  0.27172  0.79604     O
O      0.13345  0.72828  0.29604     O
O      0.14021   0.0002   0.7469     O
O      0.14021   0.9998   0.2469     O
C      0.14236   0.4969   0.4737     C
C      0.14236   0.5031   0.9737     C
H       0.1543   0.4588   0.9269     H
H       0.1543   0.5412   0.4269     H
C      0.18882   0.4117   0.6689     C
C      0.18882   0.5883   0.1689     C
O      0.19804  0.09178   0.9154     O
O      0.19804  0.90822   0.4154     O
C      0.20363  0.02616   0.8492     C
C      0.20363  0.97384   0.3492     C
C      0.20669  0.47693   0.5982     C
C      0.20669  0.52307   0.0982     C
H       0.2316   0.3991    0.752     H
H       0.2316   0.6009    0.252     H
H       0.2684   0.1009    0.248     H
H       0.2684   0.8991    0.748     H
C      0.29331  0.02307   0.4018     C
C      0.29331  0.97693   0.9018     C
C      0.29637  0.47384   0.1508     C
C      0.29637  0.52616   0.6508     C
O      0.30196  0.40822   0.0846     O
O      0.30196  0.59178   0.5846     O
C      0.31118   0.0883   0.3311     C
C      0.31118   0.9117   0.8311     C
H       0.3457   0.0412   0.0731     H
H       0.3457   0.9588   0.5731     H
C      0.35764   0.0031   0.5263     C
C      0.35764   0.9969   0.0263     C
O      0.35979   0.4998   0.2531     O
O      0.35979   0.5002   0.7531     O
O      0.36655  0.22828  0.20396     O
O      0.36655  0.77172  0.70396     O
C      0.39392   0.1349   0.3855     C
C      0.39392   0.8651   0.8855     C
Mg     0.40258   0.3232  0.09719    Mg
Mg     0.40258   0.6768  0.59719    Mg
C      0.41943   0.2076   0.3164     C
C      0.41943   0.7924   0.8164     C
H       0.4259    0.019   0.7853     H
H       0.4259    0.981   0.2853     H
C         0.44   0.0501   0.5799     C
C         0.44   0.9499   0.0799     C
C      0.45685   0.1154   0.5091     C
C      0.45685   0.8846   0.0091     C
H       0.4659   0.4507   0.2608     H
H       0.4659   0.5493   0.7608     H
C       0.4857   0.0082   0.7947     C
C       0.4857   0.9918   0.2947     C
H       0.4884   0.1468   0.9548     H
H       0.4884   0.8532   0.4548     H
H       0.4944    0.058   0.2888     H
H       0.4944    0.942   0.7888     H
O      0.49527  0.24265   0.3798     O
O      0.49527  0.75735   0.8798     O
O          0.5  0.05859  0.70721     O
O          0.5  0.05859  0.79279     O
O          0.5  0.41242     0.25     O
O          0.5  0.58758     0.75     O
O          0.5  0.94141  0.20721     O
O          0.5  0.94141  0.29279     O
O      0.50473  0.24265   0.1202     O
O      0.50473  0.75735   0.6202     O
H       0.5056    0.058   0.2112     H
H       0.5056    0.942   0.7112     H
H       0.5116   0.1468   0.5452     H
H       0.5116   0.8532   0.0452     H
C       0.5143   0.0082   0.7053     C
C       0.5143   0.9918   0.2053     C
H       0.5341   0.4507   0.2392     H
H       0.5341   0.5493   0.7392     H
C      0.54315   0.1154   0.9909     C
C      0.54315   0.8846   0.4909     C
C         0.56   0.0501   0.9201     C
C         0.56   0.9499   0.4201     C
H       0.5741    0.019   0.7147     H
H       0.5741    0.981   0.2147     H
C      0.58057   0.2076   0.1836     C
C      0.58057   0.7924   0.6836     C
Mg     0.59742   0.3232  0.40281    Mg
Mg     0.59742   0.6768  0.90281    Mg
C      0.60608   0.1349   0.1145     C
C      0.60608   0.8651   0.6145     C
O      0.63345  0.22828  0.29604     O
O      0.63345  0.77172  0.79604     O
O      0.64021   0.4998   0.2469     O
O      0.64021   0.5002   0.7469     O
C      0.64236   0.0031   0.9737     C
C      0.64236   0.9969   0.4737     C
H       0.6543   0.0412   0.4269     H
H       0.6543   0.9588   0.9269     H
C      0.68882   0.0883   0.1689     C
C      0.68882   0.9117   0.6689     C
O      0.69804  0.40822   0.4154     O
O      0.69804  0.59178   0.9154     O
C      0.70363  0.47384   0.3492     C
C      0.70363  0.52616   0.8492     C
C      0.70669  0.02307   0.0982     C
C      0.70669  0.97693   0.5982     C
H       0.7316   0.1009    0.252     H
H       0.7316   0.8991    0.752     H
H       0.7684   0.3991    0.748     H
H       0.7684   0.6009    0.248     H
C      0.79331  0.47693   0.9018     C
C      0.79331  0.52307   0.4018     C
C      0.79637  0.02616   0.6508     C
C      0.79637  0.97384   0.1508     C
O      0.80196  0.09178   0.5846     O
O      0.80196  0.90822   0.0846     O
C      0.81118   0.4117   0.8311     C
C      0.81118   0.5883   0.3311     C
H       0.8457   0.4588   0.5731     H
H       0.8457   0.5412   0.0731     H
C      0.85764   0.4969   0.0263     C
C      0.85764   0.5031   0.5263     C
O      0.85979   0.0002   0.7531     O
O      0.85979   0.9998   0.2531     O
O      0.86655  0.27172  0.70396     O
O      0.86655  0.72828  0.20396     O
C      0.89392   0.3651   0.8855     C
C      0.89392   0.6349   0.3855     C
Mg     0.90258   0.1768  0.59719    Mg
Mg     0.90258   0.8232  0.09719    Mg
C      0.91943   0.2924   0.8164     C
C      0.91943   0.7076   0.3164     C
H       0.9259    0.481   0.2853     H
H       0.9259    0.519   0.7853     H
C         0.94   0.4499   0.0799     C
C         0.94   0.5501   0.5799     C
C      0.95685   0.3846   0.0091     C
C      0.95685   0.6154   0.5091     C
H       0.9659   0.0493   0.7608     H
H       0.9659   0.9507   0.2608     H
C       0.9857   0.4918   0.2947     C
C       0.9857   0.5082   0.7947     C
H       0.9884   0.3532   0.4548     H
H       0.9884   0.6468   0.9548     H
H       0.9944    0.442   0.7888     H
H       0.9944    0.558   0.2888     H
O      0.99527  0.25735   0.8798     O
O      0.99527  0.74265   0.3798     O
