data_I
_chemical_name_common  '/home/zhangsd/repos/MofS-CGCNN/ML/data/WS24/clean_cifs/VOFSIU'
_cell_length_a  8.00100
_cell_length_b 10.60000
_cell_length_c 28.02503
_cell_angle_alpha 90.00000
_cell_angle_beta  92.10353
_cell_angle_gamma 90.00000
_space_group_name_H-M_alt      'P 1'


loop_
_space_group_symop_operation_xyz
  'x, y, z' 

loop_
_atom_site_label
_atom_site_fract_x
_atom_site_fract_y
_atom_site_fract_z
_atom_site_type_symbol
C      0.00043   0.7038  0.75453     C
H        0.002   0.5043   0.9231     H
O      0.00828   0.4015  0.32108     O
C        0.009   0.1732   0.0135     C
H       0.0136   0.0086   0.7625     H
O       0.0231     0.19   0.5187     O
C      0.02335   0.4524  0.89725     C
C       0.0293   0.3987   0.5757     C
H       0.0308   0.6421   0.9843     H
C      0.03506   0.1709  0.25726     C
C      0.03661   0.9249  0.77031     C
C      0.03727   0.9384  0.00727     C
C      0.03879   0.5031  0.35059     C
H       0.0414   0.4843   0.2584     H
O      0.04414   0.8897  0.57444     O
C      0.04427   0.4999  0.60687     C
C       0.0674   0.7157   0.9994     C
C      0.06961   0.7049  0.41401     C
C      0.07057   0.8156  0.44657     C
C      0.07151   0.6475  0.17451     C
C      0.07214   0.4053  0.27384     C
H       0.0865   0.4001   0.5474     H
C      0.08659   0.3013  0.82009     C
H       0.0943   0.1738    0.037     H
C      0.10184    0.571  0.13604     C
H       0.1061   0.1727   0.3278     H
C      0.10664   0.6782  0.79324     C
H       0.1084   0.2514   0.7938     H
H       0.1094   0.5692   0.5993     H
Cu    0.118325  0.06055 0.476275    Cu
H       0.1322    0.595   0.8011     H
C      0.13955    0.604  0.33995     C
C       0.1403   0.8982   0.8087     C
H        0.145   0.0436   0.3029     H
C      0.14579   0.1345  0.29889     C
C      0.15479   0.7038  0.37189     C
C       0.1571   0.9288   0.0429     C
O      0.16393   0.9089  0.43773     O
C       0.1754   0.7753   0.8204     C
C      0.17955   0.4013  0.89355     C
H        0.184   0.7907    0.649     H
H       0.1872   0.9633    0.827     H
O      0.18807   0.6769  0.20957     O
N      0.18846   0.7072  0.03166     N
H        0.189   0.3092   0.4225     H
H       0.1908   0.9999   0.0601     H
C      0.19166   0.9275  0.56826     C
H       0.1932   0.3993   0.2755     H
H       0.1968   0.6052   0.3117     H
H        0.207   0.5354   0.1327     H
C      0.21034   0.3255  0.85424     C
H       0.2238   0.7714   0.3648     H
C      0.22852   0.8125  0.05332     C
O      0.23889   0.9874  0.53209     O
H       0.2457   0.7571   0.8467     H
H       0.2543   0.2571   0.6533     H
O      0.26111   0.4874  0.96791     O
C      0.27148   0.3125  0.44668     C
H       0.2762   0.2714   0.1352     H
C      0.28966   0.8255  0.64576     C
H        0.293   0.0354   0.3673     H
H       0.3032   0.1052   0.1883     H
H       0.3068   0.8993   0.2245     H
C      0.30834   0.4275  0.93174     C
H       0.3092   0.4999   0.4399     H
H        0.311   0.8092   0.0775     H
N      0.31154   0.2072  0.46834     N
O      0.31193   0.1769  0.29043     O
H       0.3128   0.4633    0.673     H
H        0.316   0.2907    0.851     H
C      0.32045   0.9013  0.60645     C
C       0.3246   0.2753   0.6796     C
O      0.33607   0.4089  0.06227     O
C       0.3429   0.4288   0.4571     C
C      0.34521   0.2038  0.12811     C
C      0.35421   0.6345  0.20111     C
H        0.355   0.5436   0.1971     H
C       0.3597   0.3982   0.6913     C
C      0.36045    0.104  0.16005     C
H       0.3678    0.095   0.6989     H
Cu    0.381675  0.56055 0.023725    Cu
H       0.3906   0.0692   0.9007     H
H       0.3916   0.7514   0.7062     H
C      0.39336   0.1782  0.70676     C
H       0.3939   0.6727   0.1722     H
C      0.39816    0.071  0.36396     C
H       0.4057   0.6738    0.463     H
C      0.41341   0.8013  0.67991     C
H       0.4135   0.9001   0.9526     H
C      0.42786   0.9053  0.22616     C
C      0.42849   0.1475  0.32549     C
C      0.42943   0.3156  0.05343     C
C      0.43039   0.2049  0.08599     C
C       0.4326   0.2157   0.5006     C
C      0.45573   0.9999  0.89313     C
O      0.45586   0.3897  0.92556     O
H       0.4586   0.9843   0.2416     H
C      0.46121   0.0031  0.14941     C
C      0.46273   0.4384  0.49273     C
C      0.46339   0.4249  0.72969     C
C      0.46494   0.6709  0.24274     C
H       0.4692   0.1421   0.5157     H
C       0.4707   0.8987   0.9243     C
C      0.47665   0.9524  0.60275     C
O       0.4769     0.69   0.9813     O
H       0.4864   0.5086   0.7375     H
C        0.491   0.6732   0.4865     C
O      0.49172   0.9015  0.17892     O
H        0.498   0.0043   0.5769     H
C      0.49957   0.2038  0.74547     C
C      0.50043   0.7962  0.25453     C
H        0.502   0.9957   0.4231     H
O      0.50828   0.0985  0.82108     O
C        0.509   0.3268   0.5135     C
H       0.5136   0.4914   0.2625     H
O       0.5231     0.31   0.0187     O
C      0.52335   0.0476  0.39725     C
C       0.5293   0.1013   0.0757     C
H       0.5308   0.8579   0.4843     H
C      0.53506   0.3291  0.75726     C
C      0.53661   0.5751  0.27031     C
C      0.53727   0.5616  0.50727     C
C      0.53879   0.9969  0.85059     C
H       0.5414   0.0157   0.7584     H
O      0.54414   0.6103  0.07444     O
C      0.54427   0.0001  0.10687     C
C       0.5674   0.7843   0.4994     C
C      0.56961   0.7951  0.91401     C
C      0.57057   0.6844  0.94657     C
C      0.57151   0.8525  0.67451     C
C      0.57214   0.0947  0.77384     C
H       0.5865   0.0999   0.0474     H
C      0.58659   0.1987  0.32009     C
H       0.5943   0.3262    0.537     H
C      0.60184    0.929  0.63604     C
H       0.6061   0.3273   0.8278     H
C      0.60664   0.8218  0.29324     C
H       0.6084   0.2486   0.2938     H
H       0.6094   0.9308   0.0993     H
Cu    0.618325  0.43945 0.976275    Cu
H       0.6322    0.905   0.3011     H
C      0.63955    0.896  0.83995     C
C       0.6403   0.6018   0.3087     C
H        0.645   0.4564   0.8029     H
C      0.64579   0.3655  0.79889     C
C      0.65479   0.7962  0.87189     C
C       0.6571   0.5712   0.5429     C
O      0.66393   0.5911  0.93773     O
C       0.6754   0.7247   0.3204     C
C      0.67955   0.0987  0.39355     C
H        0.684   0.7093    0.149     H
H       0.6872   0.5367    0.327     H
O      0.68807   0.8231  0.70957     O
N      0.68846   0.7928  0.53166     N
H        0.689   0.1908   0.9225     H
H       0.6908   0.5001   0.5601     H
C      0.69166   0.5725  0.06826     C
H       0.6932   0.1007   0.7755     H
H       0.6968   0.8948   0.8117     H
H        0.707   0.9646   0.6327     H
C      0.71034   0.1745  0.35424     C
H       0.7238   0.7286   0.8648     H
C      0.72852   0.6875  0.55332     C
O      0.73889   0.5126  0.03209     O
H       0.7457   0.7429   0.3467     H
H       0.7543   0.2429   0.1533     H
O      0.76111   0.0126  0.46791     O
C      0.77148   0.1875  0.94668     C
H       0.7762   0.2286   0.6352     H
C      0.78966   0.6745  0.14576     C
H        0.793   0.4646   0.8673     H
H       0.8032   0.3948   0.6883     H
H       0.8068   0.6007   0.7245     H
C      0.80834   0.0725  0.43174     C
H       0.8092   0.0001   0.9399     H
H        0.811   0.6908   0.5775     H
N      0.81154   0.2928  0.96834     N
O      0.81193   0.3231  0.79043     O
H       0.8128   0.0367    0.173     H
H        0.816   0.2093    0.351     H
C      0.82045   0.5987  0.10645     C
C       0.8246   0.2247   0.1796     C
O      0.83607   0.0911  0.56227     O
C       0.8429   0.0712   0.9571     C
C      0.84521   0.2962  0.62811     C
C      0.85421   0.8655  0.70111     C
H        0.855   0.9564   0.6971     H
C       0.8597   0.1018   0.1913     C
C      0.86045    0.396  0.66005     C
H       0.8678    0.405   0.1989     H
Cu    0.881675  0.93945 0.523725    Cu
H       0.8906   0.4308   0.4007     H
H       0.8916   0.7486   0.2062     H
C      0.89336   0.3218  0.20676     C
H       0.8939   0.8273   0.6722     H
C      0.89816    0.429  0.86396     C
H       0.9057   0.8262    0.963     H
C      0.91341   0.6987  0.17991     C
H       0.9135   0.5999   0.4526     H
C      0.92786   0.5947  0.72616     C
C      0.92849   0.3525  0.82549     C
C      0.92943   0.1844  0.55343     C
C      0.93039   0.2951  0.58599     C
C       0.9326   0.2843   0.0006     C
C      0.95573   0.5001  0.39313     C
O      0.95586   0.1103  0.42556     O
H       0.9586   0.5157   0.7416     H
C      0.96121   0.4969  0.64941     C
C      0.96273   0.0616  0.99273     C
C      0.96339   0.0751  0.22969     C
C      0.96494   0.8291  0.74274     C
H       0.9692   0.3579   0.0157     H
C       0.9707   0.6013   0.4243     C
C      0.97665   0.5476  0.10275     C
O       0.9769     0.81   0.4813     O
H       0.9864   0.9914   0.2375     H
C        0.991   0.8268   0.9865     C
O      0.99172   0.5985  0.67892     O
H        0.998   0.4957   0.0769     H
C      0.99957   0.2962  0.24547     C
