data_I
_chemical_name_common  '/home/zhangsd/repos/MofS-CGCNN/ML/data/WS24/clean_cifs/VOFTAN'
_cell_length_a 15.43600
_cell_length_b 17.51100
_cell_length_c 20.77900
_cell_angle_alpha 84.82500
_cell_angle_beta  72.13000
_cell_angle_gamma 83.60200
_space_group_name_H-M_alt      'P 1'


loop_
_space_group_symop_operation_xyz
  'x, y, z' 

loop_
_atom_site_label
_atom_site_fract_x
_atom_site_fract_y
_atom_site_fract_z
_atom_site_type_symbol
C        0.003   0.0184   0.8675     C
H       0.0031   0.9679   0.3311     H
C       0.0052   0.8769   0.6025     C
C       0.0062   0.1377   0.9026     C
C       0.0149   0.9956   0.6364     C
H       0.0195   0.1704   0.3887     H
N       0.0221   0.0718   0.3489     N
H       0.0256   0.9812   0.8358     H
C       0.0269   0.7608   0.3788     C
C       0.0285   0.6813   0.4781     C
H       0.0311   0.1848   0.8957     H
O       0.0359   0.1432   0.1966     O
C       0.0363   0.2256   0.0997     C
C       0.0367   0.3095   0.0009     C
N         0.04   0.0859   0.8548     N
C       0.0549   0.6718   0.9739     C
C       0.0576   0.7588    0.877     C
H       0.0588    0.786   0.3386     H
C       0.0631   0.8758   0.0394     C
C       0.0659    0.309   0.4999     C
C       0.0665   0.9988   0.0753     C
C        0.067   0.2337   0.6025     C
C       0.0674   0.8915   0.5411     C
H        0.069   0.3306   0.9588     H
O       0.0695   0.6345   0.5191     O
C       0.0715   0.5807   0.0625     C
O       0.0727   0.1592  0.70206     O
C       0.0751   0.7186   0.4185     C
C       0.0785   0.0137   0.5754     C
C       0.0822   0.2592   0.0376     C
H       0.0835   0.8544   0.5092     H
H       0.0842   0.8381   0.0082     H
C       0.0856    0.177   0.1426     C
H       0.0898   0.0466    0.069     H
H       0.0906   0.7825   0.8363     H
H       0.0919   0.7555   0.2143     H
H       0.0955   0.4292    0.066     H
H       0.0979   0.3303   0.4579     H
C       0.1022    0.945   0.0266     C
H       0.1023   0.0614   0.5676     H
C       0.1029   0.7085   0.9133     C
O       0.1042   0.6201   0.0056     O
H        0.105    0.878   0.2379     H
C       0.1068   0.9607   0.5256     C
Co     0.10955  0.10231  0.25551    Co
C       0.1125   0.2674   0.5406     C
C       0.1182   0.1945   0.6481     C
H       0.1194   0.6615   0.6318     H
H       0.1229   0.3222   0.3229     H
H       0.1309    0.762   0.7016     H
H       0.1349   0.8824   0.7363     H
Co      0.1377   0.1148  0.76585    Co
H       0.1386   0.7155   0.4049     H
C       0.1401   0.7821   0.1871     C
C        0.143   0.4459   0.0784     C
H        0.145   0.2478   0.0201     H
C       0.1478   0.8556   0.2009     C
H       0.1515   0.4395   0.3508     H
O       0.1522   0.1905  0.28387     O
H       0.1528   0.9645   0.4226     H
C       0.1571   0.5244   0.0696     C
H       0.1624   0.9478   0.9245     H
H        0.165   0.0913   0.4421     H
H       0.1651   0.0761   0.9474     H
C       0.1657   0.5761   0.9838     C
C       0.1658   0.6178   0.4937     C
H       0.1661   0.6991   0.8971     H
O       0.1698   0.1716  0.12597     O
O       0.1701  0.00188  0.23052     O
C        0.174   0.7941   0.6753     C
H       0.1761    0.262   0.5258     H
C       0.1762   0.8667   0.6957     C
C       0.1784   0.9737   0.4581     C
C       0.1809   0.9586   0.9631     C
C       0.1817   0.6437   0.6307     C
H       0.1821   0.6022   0.4476     H
C       0.1829   0.3349   0.3117     C
H       0.1847   0.6388   0.6768     H
H       0.1864   0.3424   0.1097     H
O       0.1866   0.1934  0.80279     O
O       0.1885  0.01214  0.73719     O
O       0.1895   0.6728   0.1258     O
H       0.1961   0.6636   0.4933     H
C       0.1966   0.3943   0.1043     C
C       0.1971   0.5541   0.5377     C
C       0.1997   0.4052   0.3288     C
O       0.2014   0.1998   0.6323     O
C       0.2037   0.7471   0.1327     C
C       0.2081   0.5669   0.5997     C
H       0.2097   0.2875   0.8829     H
C       0.2147   0.0525   0.4429     C
C       0.2151   0.0385   0.9501     C
H       0.2152   0.4714   0.4709     H
C       0.2194   0.8978   0.1601     C
C        0.222   0.4803   0.5125     C
C       0.2237   0.9792   0.1741     C
H       0.2297   0.9355   0.4556     H
H       0.2318   0.9215   0.9649     H
C       0.2326   0.5478   0.0838     C
C       0.2328   0.2093    0.258     C
H       0.2347   0.0498   0.9881     H
C       0.2362   0.7694   0.6156     C
C       0.2388   0.9166    0.657     C
C       0.2388   0.9959    0.678     C
H       0.2391   0.0633   0.4786     H
O        0.243   0.6982   0.5912     O
C       0.2454    0.507   0.6333     C
H       0.2507   0.4027   0.9088     H
H       0.2532   0.6526     0.03     H
C       0.2535   0.3142   0.8505     C
C       0.2536   0.2828   0.2782     C
H       0.2552   0.5156   0.6739     H
C       0.2552   0.6311   0.0743     C
C       0.2563    0.421   0.5485     C
C       0.2652   0.4183   0.1225     C
C       0.2657   0.2139   0.7697     C
H       0.2659   0.0428   0.3397     H
C       0.2685   0.4347   0.6085     C
H       0.2703    0.621   0.2545     H
H       0.2711    0.372    0.532     H
C       0.2748   0.7871    0.092     C
H        0.275   0.0327   0.8478     H
C       0.2772   0.3841   0.8659     C
O       0.2779  0.01952   0.1312     O
C       0.2821   0.8614    0.106     C
C        0.283   0.4937   0.1126     C
O        0.288   0.0414  0.63626     O
C       0.2898   0.0567   0.3748     C
C       0.2898   0.4241   0.3124     C
H       0.2924   0.3952   0.6327     H
C       0.2942   0.2848   0.7879     C
C       0.2943   0.0464   0.8851     C
O       0.2946  0.16768  0.21841     O
O       0.2983   0.4952   0.3319     O
C       0.2991   0.8194   0.5754     C
C       0.2996   0.8914    0.596     C
H       0.3008    0.383    0.142     H
H       0.3039   0.7017   0.2252     H
H       0.3058   0.1093   0.3642     H
H       0.3068   0.1001    0.877     H
C       0.3068   0.6673   0.7676     C
Co     0.30958  0.13133  0.12413    Co
H       0.3116   0.7759   0.3095     H
H       0.3161   0.6342   0.0774     H
H       0.3175   0.7642   0.0552     H
O       0.3196   0.1761  0.72346     O
C       0.3219   0.5302   0.8736     C
C       0.3223   0.6515    0.243     C
H       0.3304   0.8878   0.0784     H
H       0.3307   0.5089   0.1257     H
Co     0.33364  0.14845   0.6281    Co
C       0.3344   0.7341   0.3323     C
C       0.3393   0.4243   0.8174     C
H       0.3403   0.8037   0.5348     H
H       0.3413   0.9243   0.5688     H
C       0.3425   0.3035   0.2613     C
H       0.3458   0.7892   0.8137     H
C       0.3465   0.6615   0.3072     C
H       0.3471   0.7941   0.4066     H
O       0.3503  0.23824  0.07661     O
O       0.3525  0.14394  0.01299     O
C       0.3539   0.6752   0.8211     C
C       0.3557   0.7452   0.3905     C
C       0.3608   0.3734   0.2793     C
C        0.362   0.3244   0.7434     C
O       0.3645    0.494   0.8279     O
O       0.3657   0.6263   0.7103     O
C       0.3663   0.7463   0.8366     C
C       0.3708   0.2114   0.0189     C
H       0.3734   0.9981   0.9828     H
C       0.3747   0.0047   0.3736     C
C       0.3766   0.6135   0.8591     C
C        0.378   0.5985   0.3428     C
H       0.3781   0.9383    0.299     H
O        0.379   0.1579  0.51912     O
C       0.3828   0.9981   0.8844     C
C       0.3833   0.3936   0.7576     C
C       0.3886   0.5173   0.3197     C
C       0.3889   0.6849   0.4239     C
O       0.3901   0.2526  0.57739     O
H       0.3905   0.2702   0.2375     H
H       0.3944   0.3036   0.7023     H
O       0.3946   0.6155  0.19131     O
C       0.4001   0.6114   0.4009     C
H       0.4002   0.3592   0.0033     H
H       0.4014   0.0516   0.4493     H
H       0.4044   0.6927   0.4626     H
C       0.4045   0.2235   0.5214     C
C        0.407   0.7579   0.8839     C
C       0.4087    0.947   0.3295     C
C       0.4109   0.9819   0.9412     C
H       0.4116   0.8077   0.8938     H
C       0.4163   0.5386   0.8144     C
H       0.4209   0.3857    0.269     H
H       0.4215   0.4826   0.3451     H
C       0.4221   0.0138   0.4181     C
C       0.4221   0.6261   0.9065     C
H       0.4222    0.516   0.2719     H
H       0.4225   0.5702   0.4245     H
C       0.4248   0.2578   0.9587     C
H       0.4255   0.9783   0.7856     H
C       0.4259   0.6653    0.658     C
H       0.4284   0.4196   0.7256     H
H       0.4311   0.7633   0.7005     H
C       0.4341   0.3348   0.9643     C
H       0.4357   0.7592   0.1935     H
H       0.4365   0.0854   0.2166     H
C       0.4397    0.699   0.9156     C
H       0.4403   0.5844   0.9319     H
C       0.4418   0.9706   0.8254     C
H       0.4436   0.5778   0.5969     H
N       0.4469   0.0831   0.1209     N
C       0.4525   0.7376   0.6606     C
C       0.4565   0.6604   0.1453     C
C       0.4572   0.2651   0.4575     C
C       0.4599    0.627   0.5984     C
H       0.4602    0.365    0.498     H
H       0.4635   0.1732   0.8941     H
N       0.4647   0.0895   0.6272     N
C       0.4678   0.7358   0.1535     C
H       0.4687   0.0258   0.5528     H
H       0.4693   0.1805   0.3952     H
C        0.472   0.2238   0.8992     C
H       0.4743   0.7064   0.9437     H
C        0.475   0.0685   0.1755     C
C       0.4825   0.3387   0.4585     C
C       0.4883   0.2285   0.3972     C
C       0.4886   0.9014     0.33     C
H       0.4898   0.1369   0.7007     H
H       0.4901   0.0689   0.0234     H
C       0.4934   0.3755   0.9122     C
C       0.4938   0.9418   0.9369     C
C       0.4994   0.0332   0.5835     C
H       0.4994   0.4269   0.9163     H
H       0.5006   0.5731   0.0837     H
C       0.5006   0.9668   0.4165     C
C       0.5062   0.0582   0.0631     C
C       0.5066   0.6245   0.0878     C
H       0.5099   0.9311   0.9766     H
H       0.5102   0.8631   0.2993     H
C       0.5114   0.0986     0.67     C
C       0.5117   0.7715   0.6028     C
C       0.5175   0.6613   0.5415     C
C        0.525   0.9315   0.8245     C
H       0.5257   0.2936   0.0563     H
C        0.528   0.7762   0.1008     C
H       0.5307   0.8195   0.6048     H
H       0.5313   0.9742   0.4472     H
C       0.5322   0.2642   0.8465     C
N       0.5353   0.9105   0.3728     N
H       0.5365   0.8268   0.1059     H
H       0.5398    0.635    0.502     H
C       0.5401    0.373   0.4016     C
C       0.5428   0.7349   0.5425     C
C       0.5435   0.3396   0.8547     C
C       0.5475   0.2624   0.3394     C
N       0.5531   0.9169   0.8791     N
H       0.5564   0.4222   0.4031     H
C       0.5582   0.0294   0.1746     C
H       0.5597   0.4156   0.0681     H
C       0.5603    0.301   0.0844     C
H       0.5635   0.9146   0.7834     H
H       0.5643   0.2408   0.8065     H
C       0.5659   0.6652   0.0357     C
H       0.5689   0.2367   0.2995     H
H       0.5716   0.5804   0.2744     H
C       0.5741   0.3347    0.342     C
H       0.5745   0.0217   0.2144     H
C       0.5752   0.7422   0.0413     C
H       0.5775   0.4298   0.5755     H
H       0.5778    0.484   0.7281     H
C       0.5779   0.3739   0.0935     C
C       0.5779   0.9862   0.5819     C
H       0.5785   0.5174   0.6549     H
H       0.5791   0.6143    0.731     H
C       0.5837   0.4614   0.1856     C
H       0.5884   0.1923   0.1062     H
C       0.5891   0.0181   0.0588     C
C       0.5913    0.053   0.6705     C
C        0.593   0.2421   0.1161     C
C       0.5955   0.7765   0.4786     C
H       0.5956   0.3073   0.5374     H
H       0.5986   0.9484   0.5507     H
H       0.5998   0.6408   0.9967     H
C       0.5999   0.3886   0.5991     C
O       0.6054   0.3845  0.80869     O
H       0.6056   0.6964   0.2977     H
H       0.6095   0.7298   0.7625     H
O       0.6099   0.7474  0.42261     O
C       0.6111   0.3151   0.5761     C
C       0.6114   0.4827   0.6803     C
C       0.6167   0.6064   0.2424     C
C       0.6172   0.0019   0.1156     C
O        0.621   0.8421  0.48088     O
H       0.6219   0.0617    0.701     H
C        0.622   0.4015   0.6572     C
C       0.6234   0.3865   0.1409     C
C       0.6253   0.9953   0.6264     C
H       0.6266   0.0019   0.0172     H
C       0.6292   0.7886   0.9811     C
C       0.6337   0.2537   0.1634     C
O       0.6343   0.3737   0.2897     O
O       0.6355    0.506   0.1721     O
C        0.638   0.6756   0.2566     C
C       0.6392   0.6266   0.7207     C
C       0.6443   0.2548   0.6095     C
C       0.6461   0.3248   0.1789     C
O       0.6475  0.85606  0.98701     O
O       0.6497  0.76176  0.92339     O
H       0.6529   0.2059   0.5934     H
C       0.6535   0.3385   0.6928     C
H       0.6542   0.2108   0.1863     H
C       0.6575   0.6965   0.7387     C
H       0.6587   0.0757   0.4312     H
H       0.6597   0.1963   0.4652     H
C       0.6607   0.5757   0.1826     C
C       0.6656   0.2659   0.6677     C
Co     0.66636  0.85155   0.3719    Co
H       0.6693   0.4911   0.8743     H
H       0.6696   0.1122   0.9216     H
C       0.6777   0.3485    0.757     C
C       0.6781   0.4698   0.1264     C
O       0.6804   0.8239  0.27654     O
H       0.6825   0.2358   0.9448     H
H       0.6839   0.3658   0.9226     H
H       0.6884   0.2241   0.6905     H
Co     0.69042  0.86867  0.87587    Co
C       0.6932   0.3327   0.2324     C
H       0.6932   0.8999    0.123     H
H       0.6942   0.8907   0.6358     H
H       0.6961   0.2983   0.7748     H
H       0.6992    0.617    0.858     H
C       0.7004   0.1086    0.404     C
C       0.7009   0.1806   0.4246     C
O       0.7017   0.5048   0.6681     O
O       0.7054  0.83232  0.78159     O
C       0.7057   0.9536   0.1149     C
C       0.7058   0.7152   0.2121     C
H       0.7076   0.6048   0.3673     H
C       0.7102   0.5759   0.6876     C
C       0.7102   0.9433   0.6252     C
O        0.712   0.9586  0.36374     O
C        0.717   0.5063   0.8874     C
C       0.7179   0.1386    0.894     C
O       0.7221  0.98048   0.8688     O
C       0.7228   0.6159   0.1341     C
H        0.725   0.9673   0.1522     H
C       0.7252   0.2129    0.908     C
H       0.7289    0.628    0.468     H
H       0.7297    0.379   0.7455     H
C       0.7315   0.5653   0.3915     C
H       0.7341   0.9572   0.6603     H
C       0.7343   0.7861   0.2303     C
C       0.7348   0.5817   0.8775     C
C       0.7437    0.579   0.4515     C
C       0.7448   0.3689   0.9257     C
H       0.7448   0.4844   0.3261     H
C       0.7464   0.7172   0.7218     C
C       0.7465   0.6858   0.1495     C
H       0.7468   0.3474     0.97     H
H       0.7493   0.5973   0.0912     H
C       0.7546    0.493   0.3667     C
O        0.757   0.3018   0.4088     O
H       0.7609   0.9367   0.5214     H
C       0.7612   0.0041    0.322     C
C       0.7612   0.0834    0.343     C
C       0.7638   0.2306   0.3844     C
H       0.7653   0.9502   0.0119     H
C       0.7672   0.7907    0.742     C
C       0.7674   0.4522   0.9162     C
H       0.7682   0.0785   0.0351     H
H       0.7703   0.0645   0.5444     H
C       0.7763   0.0208   0.8259     C
C        0.778   0.5197   0.4875     C
C       0.7806   0.1022   0.8399     C
H       0.7848   0.5286   0.5291     H
C       0.7849   0.9615   0.0499     C
C       0.7853   0.9475   0.5571     C
H       0.7903   0.7125   0.1171     H
C       0.7919   0.4331   0.4003     C
C       0.7963   0.2529   0.8673     C
O       0.7986   0.8002   0.3677     O
C       0.8003   0.5948   0.6712     C
C       0.8029   0.4459   0.4623     C
C       0.8034   0.6057   0.8957     C
H       0.8039   0.3364   0.5067     H
O       0.8105   0.3272   0.8742     O
O       0.8115  0.98786  0.26281     O
O       0.8134   0.8066  0.19721     O
H       0.8136   0.6576   0.8903     H
H       0.8153   0.3612   0.3232     H
C       0.8171   0.6651   0.6883     C
H       0.8179   0.3978   0.5524     H
C       0.8183   0.3563   0.3693     C
C       0.8191   0.0414   0.0369     C
C       0.8216   0.0263   0.5419     C
C       0.8238   0.1333   0.3043     C
H       0.8239    0.738   0.4742     H
C        0.826   0.2059   0.3247     C
O       0.8299  0.99812  0.76948     O
O       0.8302   0.8284  0.87403     O
H       0.8339   0.3009   0.1029     H
C       0.8342   0.3822   0.5063     C
C       0.8343   0.4239   0.0162     C
H       0.8349   0.9239   0.0526     H
H        0.835   0.9087   0.5579     H
H       0.8376   0.0522   0.0755     H
C       0.8429   0.4756   0.9304     C
H       0.8472   0.0355   0.5774     H
O       0.8478   0.8095  0.71613     O
H       0.8485   0.5605   0.6492     H
C       0.8522   0.1444   0.7991     C
H        0.855   0.7522   0.9799     H
C        0.857   0.5541   0.9216     C
C       0.8599   0.2179   0.8129     C
H       0.8614   0.2845   0.5951     H
Co      0.8623   0.8852  0.23415    Co
H       0.8651   0.1176   0.2637     H
H       0.8691    0.238   0.2984     H
H       0.8771   0.6778   0.6771     H
H       0.8806   0.3385   0.3682     H
C       0.8818   0.8055   0.3519     C
C       0.8875   0.7326   0.4594     C
Co     0.89045  0.89769  0.74449    Co
C       0.8932   0.0393   0.4744     C
H        0.895    0.122   0.7621     H
O       0.8958   0.3799   0.9944     O
C       0.8971   0.2915   0.0867     C
H       0.8977   0.9386   0.4324     H
C       0.8978    0.055   0.9734     C
H       0.9021   0.6697   0.5421     H
H       0.9045   0.5708    0.934     H
H       0.9081   0.2445   0.7857     H
H       0.9094   0.2175   0.1637     H
H       0.9102   0.9534    0.931     H
C       0.9144    0.823   0.8574     C
H       0.9158   0.1619   0.9918     H
H       0.9165   0.1456   0.4908     H
C       0.9178   0.7408   0.9624     C
C       0.9215   0.9863   0.4246     C
C       0.9249   0.2814   0.5815     C
O       0.9273   0.8408  0.29794     O
C       0.9285   0.4193   0.9375     C
O       0.9305   0.3655   0.4809     O
H        0.931   0.6694   0.0412     H
C       0.9326   0.1085   0.4589     C
C        0.933   0.7663   0.3975     C
C       0.9335   0.0012   0.9247     C
C       0.9341    0.691   0.5001     C
C       0.9369   0.1242   0.9606     C
H       0.9412    0.214   0.6614     H
C       0.9424   0.2412    0.123     C
C       0.9451   0.3282   0.0261     C
N         0.96   0.9141   0.1452     N
C       0.9633   0.6905   0.9991     C
C       0.9637   0.7744   0.9003     C
O       0.9641   0.8568   0.8034     O
H       0.9689   0.8152   0.1043     H
C       0.9715   0.3187   0.5219     C
C       0.9731   0.2392   0.6212     C
H       0.9744   0.0188   0.1642     H
N       0.9779   0.9282   0.6511     N
H       0.9805   0.8296   0.6113     H
C       0.9851   0.0044   0.3636     C
C       0.9938   0.8623   0.0974     C
C       0.9948   0.1231   0.3975     C
H       0.9969   0.0321   0.6689     H
C        0.997   0.9816   0.1325     C
