data_I
_chemical_name_common  '/home/zhangsd/repos/MofS-CGCNN/ML/data/WS24/clean_cifs/VOPVON'
_cell_length_a 13.49169
_cell_length_b 13.49169
_cell_length_c 14.58800
_cell_angle_alpha 110.24535
_cell_angle_beta  110.24535
_cell_angle_gamma 91.71172
_space_group_name_H-M_alt      'P 1'


loop_
_space_group_symop_operation_xyz
  'x, y, z' 

loop_
_atom_site_label
_atom_site_fract_x
_atom_site_fract_y
_atom_site_fract_z
_atom_site_type_symbol
Co         0.0      0.5      0.0    Co
Co         0.0      0.5      0.5    Co
H       0.0027   0.2551   0.4473     H
H       0.0107   0.4691   0.3312     H
O      0.02197  0.90917   0.0891     O
H       0.0295   0.9337   0.5858     H
O      0.03174    0.405  0.86326     O
C      0.03209  0.14011   0.2099     C
H       0.0372    0.745   0.2724     H
C      0.03799  0.89181   0.3454     C
H       0.0429   0.3791   0.3479     H
O        0.047  0.22868   0.2782     O
H       0.0534   0.4362    0.824     H
H       0.0553   0.7413   0.0722     H
O      0.05709  0.44375  0.37601     O
N      0.06272  0.90746   0.8698     N
H       0.0663   0.9705   0.9142     H
C       0.0706   0.7452   0.5714     C
H       0.0735   0.3867    0.895     H
N       0.0812  0.80188   0.3194     N
C      0.08135  0.12605   0.7146     C
O      0.09083  0.97803   0.4109     O
N      0.09254  0.93728   0.6302     N
O       0.0926  0.47556  0.73616     O
O      0.09425  0.42023  0.08703     O
H       0.0943   0.7067   0.8371     H
H        0.095   0.1666   0.7884     H
N      0.10571  0.65155   0.5563     N
C      0.10819  0.96201   0.1546     C
H       0.1145   0.1719   0.6908     H
O       0.1194   0.4406  0.58651     O
C      0.12465  0.72631   0.0864     C
C      0.12605  0.08135   0.2146     C
C      0.13778  0.43194   0.6731     C
N      0.13793  0.62389   0.0541     N
C       0.1383   0.8429   0.6138     C
C      0.14011  0.03209   0.7099     C
C       0.1571   0.8617   0.8862     C
H       0.1572   0.6278   0.3033     H
C      0.15799  0.75401   0.8627     C
C      0.15944  0.35876    0.065     C
H       0.1666    0.095   0.2884     H
O      0.16995  0.32651  0.97732     O
H       0.1719   0.1145   0.1908     H
C      0.18877  0.78997   0.3596     C
H       0.1889   0.4177   0.2679     H
N      0.19812   0.9188   0.1806     N
C      0.21003  0.81123   0.1404     C
C      0.21151  0.65289   0.5834     C
C      0.21206  0.68694   0.3399     C
H       0.2193   0.2925   0.5558     H
C      0.22106  0.36424    0.703     C
O      0.22868    0.047   0.7782     O
C      0.22975  0.32501   0.1493     C
C      0.23311  0.36851   0.2519     C
H       0.2374   0.5886   0.5756     H
C       0.2375   0.6031   0.0726     C
C      0.24599  0.84201   0.6373     C
H        0.247   0.4152   0.8582     H
H       0.2473   0.5321   0.0494     H
C      0.24978  0.29522   0.6246     C
C      0.25373  0.71687   0.8775     C
C       0.2548   0.9294   0.9286     C
H        0.255   0.9628   0.2276     H
H       0.2551   0.0027   0.9473     H
H       0.2555   0.6441   0.8612     H
H       0.2587   0.9447   0.4278     H
H       0.2643   0.4289   0.4489     H
C      0.26597  0.36803   0.8058     C
C      0.27369  0.87535   0.4136     C
C      0.28313  0.74627   0.6225     C
H       0.2925   0.2193   0.0558     H
H       0.2933   0.9057   0.6629     H
C      0.29522  0.24978   0.1246     C
C      0.30147  0.33953   0.3309     C
N      0.30495  0.38325   0.4335     N
C      0.31306  0.78794   0.1601     C
C      0.31721  0.67339   0.3752     C
C      0.32501  0.22975   0.6493     C
O      0.32651  0.16995  0.47732     O
C      0.32661  0.68279   0.1248     C
H       0.3345   0.6051   0.3641     H
C      0.33953  0.30147   0.8309     C
C      0.34711  0.78849   0.9166     C
H       0.3476   0.3646   0.4817     H
N      0.34845  0.89429   0.9437     N
H       0.3559   0.7445   0.6388     H
C      0.35876  0.15944    0.565     C
C      0.36424  0.22106    0.203     C
H       0.3646   0.3476   0.9817     H
C      0.36803  0.26597   0.3058     C
C      0.36851  0.23311   0.7519     C
H       0.3722   0.8428   0.1967     H
N      0.37611  0.86207   0.4459     N
H       0.3791   0.0429   0.8479     H
N      0.38325  0.30495   0.9335     N
H       0.3867   0.0735    0.395     H
H       0.3949   0.6655   0.1359     H
C       0.3969   0.7625   0.4274     C
O        0.405  0.03174  0.36326     O
H       0.4114   0.7626   0.9244     H
H       0.4152    0.247   0.3582     H
H       0.4177   0.1889   0.7679     H
O      0.42023  0.09425  0.58703     O
H       0.4289   0.2643   0.9489     H
C      0.43194  0.13778   0.1731     C
H       0.4362   0.0534    0.324     H
O       0.4406   0.1194  0.08651     O
O      0.44375  0.05709  0.87601     O
H       0.4679   0.7527   0.4506     H
H       0.4691   0.0107   0.8312     H
O      0.47556   0.0926  0.23616     O
Co         0.5      1.0      0.5    Co
Co         0.5      1.0      1.0    Co
O      0.52444   0.9074  0.76384     O
H       0.5309   0.9893   0.1688     H
H       0.5321   0.2473   0.5494     H
O      0.55625  0.94291  0.12399     O
O       0.5594   0.8806  0.91349     O
H       0.5638   0.9466    0.676     H
C      0.56806  0.86222   0.8269     C
H       0.5711   0.7357   0.0511     H
O      0.57977  0.90575  0.41297     O
H       0.5823   0.8111   0.2321     H
H       0.5848    0.753   0.6418     H
H       0.5886   0.2374   0.0756     H
O        0.595  0.96826  0.63674     O
C       0.6031   0.2375   0.5726     C
H       0.6051   0.3345   0.8641     H
H       0.6133   0.9265    0.605     H
N      0.61675  0.69505   0.0665     N
H       0.6209   0.9571   0.1521     H
N      0.62389  0.13793   0.5541     N
H       0.6278   0.1572   0.8033     H
C      0.63149  0.76689   0.2481     C
C      0.63197  0.73403   0.6942     C
H       0.6354   0.6524   0.0183     H
C      0.63576  0.77894    0.797     C
C      0.64124  0.84056    0.435     C
H       0.6441   0.2555   0.3612     H
N      0.65155  0.10571   0.0563     N
H       0.6524   0.6354   0.5183     H
C      0.65289  0.21151   0.0834     C
C      0.66047  0.69853   0.1691     C
H       0.6655   0.3949   0.6359     H
C      0.67339  0.31721   0.8752     C
O      0.67349  0.83005  0.52268     O
C      0.67499  0.77025   0.3507     C
C      0.68279  0.32661   0.6248     C
C      0.68694  0.21206   0.8399     C
N      0.69505  0.61675   0.5665     N
C      0.69853  0.66047   0.6691     C
C      0.70478  0.75022   0.8754     C
H       0.7067   0.0943   0.3371     H
H       0.7075   0.7807   0.9442     H
C      0.71687  0.25373   0.3775     C
C      0.72631  0.12465   0.5864     C
C      0.73403  0.63197   0.1942     C
H       0.7357   0.5711   0.5511     H
H       0.7413   0.0553   0.5722     H
H       0.7445   0.3559   0.1388     H
H       0.7449   0.9973   0.0527     H
H        0.745   0.0372   0.7724     H
C       0.7452   0.0706   0.0714     C
C      0.74627  0.28313   0.1225     C
C      0.75022  0.70478   0.3754     C
H       0.7527   0.4679   0.9506     H
H        0.753   0.5848   0.1418     H
C      0.75401  0.15799   0.3627     C
C       0.7625   0.3969   0.9274     C
H       0.7626   0.4114   0.4244     H
C      0.76689  0.63149   0.7481     C
C      0.77025  0.67499   0.8507     C
O      0.77132    0.953   0.2218     O
C      0.77894  0.63576    0.297     C
H       0.7807   0.7075   0.4442     H
C      0.78794  0.31306   0.6601     C
C      0.78849  0.34711   0.4166     C
C      0.78997  0.18877   0.8596     C
N      0.80188   0.0812   0.8194     N
H       0.8111   0.5823   0.7321     H
C      0.81123  0.21003   0.6404     C
H       0.8281   0.8855   0.8092     H
O      0.83005  0.67349  0.02268     O
H       0.8334    0.905   0.7116     H
C      0.84056  0.64124    0.935     C
C      0.84201  0.24599   0.1373     C
H       0.8428   0.3722   0.6967     H
C       0.8429   0.1383   0.1138     C
C      0.85989  0.96791   0.2901     C
C       0.8617   0.1571   0.3862     C
N      0.86207  0.37611   0.9459     N
C      0.86222  0.56806   0.3269     C
C      0.87395  0.91865   0.7854     C
C      0.87535  0.27369   0.9136     C
O       0.8806   0.5594  0.41349     O
H       0.8855   0.8281   0.3092     H
C      0.89181  0.03799   0.8454     C
N      0.89429  0.34845   0.4437     N
H        0.905   0.8334   0.2116     H
H       0.9057   0.2933   0.1629     H
O      0.90575  0.57977  0.91297     O
O       0.9074  0.52444  0.26384     O
N      0.90746  0.06272   0.3698     N
O      0.90917  0.02197   0.5891     O
C      0.91865  0.87395   0.2854     C
N       0.9188  0.19812   0.6806     N
H       0.9265   0.6133    0.105     H
C       0.9294   0.2548   0.4286     C
H       0.9337   0.0295   0.0858     H
N      0.93728  0.09254   0.1302     N
O      0.94291  0.55625  0.62399     O
H       0.9447   0.2587   0.9278     H
H       0.9466   0.5638    0.176     H
O        0.953  0.77132   0.7218     O
H       0.9571   0.6209   0.6521     H
C      0.96201  0.10819   0.6546     C
H       0.9628    0.255   0.7276     H
C      0.96791  0.85989   0.7901     C
O      0.96826    0.595  0.13674     O
H       0.9705   0.0663   0.4142     H
O      0.97803  0.09083   0.9109     O
H       0.9893   0.5309   0.6688     H
H       0.9973   0.7449   0.5527     H
