data_I
_chemical_name_common  '/home/zhangsd/repos/MofS-CGCNN/ML/data/WS24/clean_cifs/VOPVIH'
_cell_length_a  7.81300
_cell_length_b  7.94060
_cell_length_c 11.67270
_cell_angle_alpha 100.09000
_cell_angle_beta  95.84300
_cell_angle_gamma 99.37400
_space_group_name_H-M_alt      'P 1'


loop_
_space_group_symop_operation_xyz
  'x, y, z' 

loop_
_atom_site_label
_atom_site_fract_x
_atom_site_fract_y
_atom_site_fract_z
_atom_site_type_symbol
O       0.0109   0.6668  0.12065     O
H       0.0151   0.1286    0.588     H
C       0.0229   0.5453   0.6547     C
C       0.0435   0.6318   0.3624     C
H        0.047   0.3743   0.3215     H
C       0.0476   0.4284   0.9731     C
C         0.06   0.2471      0.6     C
O       0.1808   0.9053  0.68487     O
C       0.1937   0.6019   0.6364     C
N       0.1981   0.4246  0.03994     N
H       0.2171   0.4867   0.1097     H
C       0.2252   0.6958   0.3377     C
C       0.2301   0.3041   0.5805     C
H       0.2457   0.2686   0.8316     H
C        0.269   0.7922   0.6547     C
O       0.2797   0.8611  0.35967     O
H       0.2946   0.0704   0.5325     H
C       0.2985   0.4808   0.6006     C
H       0.3146    0.884   0.0874     H
O       0.3171   0.5924  0.29615     O
H       0.3183   0.7815    0.891     H
C       0.3266   0.3282   0.0057     C
C        0.335     0.26   0.8883     C
N       0.3372   0.1799  0.54489     N
C       0.4065   0.8311   0.0641     C
C       0.4078   0.7693   0.9461     C
H        0.414   0.5187   0.5903     H
O         0.43   0.8348  0.63987     O
H       0.4443   0.2147   0.5359     H
H       0.4541   0.3523   0.1688     H
C       0.4571   0.3108   0.0895     C
N       0.4658    0.183   0.8538     N
Co     0.47746  0.09478  0.68013    Co
Co     0.52254  0.90522  0.31987    Co
N       0.5342    0.817   0.1462     N
C       0.5429   0.6892   0.9105     C
H       0.5459   0.6477   0.8312     H
H       0.5557   0.7853   0.4641     H
O         0.57   0.1652  0.36013     O
H        0.586   0.4813   0.4097     H
C       0.5922   0.2307   0.0539     C
C       0.5935   0.1689   0.9359     C
N       0.6628   0.8201  0.45511     N
C        0.665     0.74   0.1117     C
C       0.6734   0.6718   0.9943     C
H       0.6817   0.2185    0.109     H
O       0.6829   0.4076  0.70385     O
H       0.6854    0.116   0.9126     H
C       0.7015   0.5192   0.3994     C
H       0.7054   0.9296   0.4675     H
O       0.7203   0.1389  0.64033     O
C        0.731   0.2078   0.3453     C
H       0.7543   0.7314   0.1684     H
C       0.7699   0.6959   0.4195     C
C       0.7748   0.3042   0.6623     C
H       0.7829   0.5133   0.8903     H
N       0.8019   0.5754  0.96006     N
C       0.8063   0.3981   0.3636     C
O       0.8192   0.0947  0.31513     O
C         0.94   0.7529      0.4     C
C       0.9524   0.5716   0.0269     C
H        0.953   0.6257   0.6785     H
C       0.9565   0.3682   0.6376     C
C       0.9771   0.4547   0.3453     C
H       0.9849   0.8714    0.412     H
O       0.9891   0.3332  0.87935     O
