data_I
_chemical_name_common  '/home/zhangsd/repos/MofS-CGCNN/ML/data/WS24/clean_cifs/VOPWII'
_cell_length_a 10.15860
_cell_length_b 10.22000
_cell_length_c 12.77870
_cell_angle_alpha 79.12500
_cell_angle_beta  71.98100
_cell_angle_gamma 72.38300
_space_group_name_H-M_alt      'P 1'


loop_
_space_group_symop_operation_xyz
  'x, y, z' 

loop_
_atom_site_label
_atom_site_fract_x
_atom_site_fract_y
_atom_site_fract_z
_atom_site_type_symbol
H       0.0144   0.2999   0.2568     H
C       0.0288   0.6907   0.3385     C
C       0.0458   0.1135   0.8219     C
C         0.05   0.7624   0.1468     C
H       0.0508   0.2799   0.0741     H
H       0.0527   0.6227    0.394     H
N       0.0624   0.1878  0.63184     N
H        0.074   0.0444   0.8754     H
C       0.0806   0.2224   0.2259     C
O      0.08121  0.75477  0.53746     O
H       0.0872   0.7469   0.0726     H
C        0.089   0.6616   0.2296     C
C       0.0992   0.0921   0.7118     C
C       0.1024    0.211    0.116     C
Co     0.12278  0.14497  0.46278    Co
N       0.1518   0.1252  0.29041     N
H       0.1632    0.008   0.6925     H
O       0.1675  0.93811  0.50474     O
C       0.1754   0.8129  0.53381     C
N       0.1878   0.5319  0.21033     N
H       0.1922    0.472   0.2672     H
C       0.2005   0.0978   0.0675     C
O      0.21592  0.33392  0.40964     O
H       0.2166   0.0892   0.9931     H
H       0.2354   0.5499   0.6133     H
C       0.2461   0.0155   0.2436     C
O       0.2718   0.5609   0.0241     O
C       0.2743   0.9972   0.1336     C
C       0.2767   0.4914   0.1116     C
H       0.2957   0.9476   0.2875     H
C       0.3055   0.7234  0.56951     C
C        0.311   0.5857   0.6092     C
C       0.3333   0.2529  0.41927     C
O       0.3405  0.30469  0.68209     O
H       0.3444   0.2885   0.1708     H
O      0.34721  0.12486  0.44022     O
H       0.3734   0.5016   0.3473     H
H        0.376   0.2891   0.9808     H
N       0.3777   0.8764   0.0981     N
C       0.3882   0.3552   0.1182     C
O       0.3929   0.8967  0.91623     O
H       0.4109   0.8213   0.1492     H
H       0.4137   0.8695   0.5374     H
C       0.4188    0.777  0.56257     C
C       0.4305    0.502   0.6426     C
C        0.433   0.8333   0.9966     C
C       0.4448    0.354   0.6846     C
O        0.452   0.7151  0.28371     O
C       0.4523   0.3014   0.0055     C
C       0.4544   0.4447   0.3673     C
C       0.4598   0.3078   0.4067     C
H       0.4636   0.3675   0.1441     H
H       0.4929   0.3704   0.9532     H
H       0.5071   0.6296   0.0468     H
H       0.5364   0.6325   0.8559     H
C       0.5402   0.6922   0.5933     C
C       0.5456   0.5553   0.6327     C
C       0.5477   0.6986   0.9945     C
O        0.548   0.2849  0.71629     O
C       0.5552    0.646   0.3154     C
C        0.567   0.1667   0.0034     C
C       0.5695    0.498   0.3574     C
C       0.5812    0.223  0.43743     C
H       0.5863   0.1305   0.4626     H
H       0.5891   0.1787   0.8508     H
O       0.6071   0.1033  0.08377     O
C       0.6118   0.6448   0.8818     C
N       0.6223   0.1236   0.9019     N
H        0.624   0.7109   0.0192     H
H       0.6266   0.4984   0.6527     H
O      0.65279  0.87514  0.55978     O
H       0.6556   0.7115   0.8292     H
O       0.6595  0.69531  0.31791     O
C       0.6667   0.7471  0.58073     C
C        0.689   0.4143   0.3908     C
C       0.6945   0.2766  0.43049     C
H       0.7043   0.0524   0.7125     H
C       0.7233   0.5086   0.8884     C
C       0.7257   0.0028   0.8664     C
O       0.7282   0.4391   0.9759     O
C       0.7539   0.9845   0.7564     C
H       0.7646   0.4501   0.3867     H
H       0.7834   0.9108   0.0069     H
O      0.78408  0.66608  0.59036     O
C       0.7995   0.9022   0.9325     C
H       0.8078    0.528   0.7328     H
N       0.8122   0.4681  0.78967     N
C       0.8246   0.1871  0.46619     C
O       0.8325  0.06189  0.49526     O
H       0.8368    0.992   0.3075     H
N       0.8482   0.8748  0.70959     N
Co     0.87722  0.85503  0.53722    Co
C       0.8976    0.789    0.884     C
C       0.9008   0.9079   0.2882     C
C        0.911   0.3384   0.7704     C
H       0.9128   0.2531   0.9274     H
O      0.91879  0.24523  0.46254     O
C       0.9194   0.7776   0.7741     C
H        0.926   0.9556   0.1246     H
N       0.9376   0.8122  0.36816     N
H       0.9473   0.3773    0.606     H
H       0.9492   0.7201   0.9259     H
C         0.95   0.2376   0.8532     C
C       0.9542   0.8865   0.1781     C
C       0.9712   0.3093   0.6615     C
H       0.9856   0.7001   0.7432     H
