data_I
_chemical_name_common  '/home/zhangsd/repos/MofS-CGCNN/ML/data/WS24/clean_cifs/VOPWOO'
_cell_length_a  9.52780
_cell_length_b 10.11570
_cell_length_c 17.76840
_cell_angle_alpha 97.95900
_cell_angle_beta  90.30000
_cell_angle_gamma 110.19800
_space_group_name_H-M_alt      'P 1'


loop_
_space_group_symop_operation_xyz
  'x, y, z' 

loop_
_atom_site_label
_atom_site_fract_x
_atom_site_fract_y
_atom_site_fract_z
_atom_site_type_symbol
C       0.0002   0.8099   0.4756     C
H       0.0039   0.4712    0.374     H
N       0.0159   0.0451  0.73998     N
C       0.0169   0.1097   0.6791     C
C       0.0283   0.2698   0.4573     C
H       0.0452   0.1365   0.9001     H
O       0.0471   0.8759  0.09562     O
H        0.049   0.6787   0.6765     H
H       0.0507   0.2113   0.4144     H
H       0.0603   0.8562   0.3286     H
H       0.0716   0.8298   0.1267     H
C       0.0784   0.6191   0.6368     C
H        0.103   0.4315   0.7263     H
C        0.103   0.6899   0.5657     C
H       0.1155   0.3558   0.4697     H
H       0.1207   0.6255   0.5242     H
N       0.1236   0.1976  0.56405     N
O       0.1252   0.8789  0.45986     O
C       0.1268   0.1283   0.6271     C
C       0.1298   0.0004   0.7512     C
H        0.131    0.956   0.7935     H
O       0.1414   0.6736   0.1483     O
O       0.1544   0.2043  0.18701     O
H       0.1552   0.5815   0.7768     H
Co     0.17699  0.00258  0.19119    Co
H         0.18   0.4571   0.1853     H
C       0.1857   0.5214   0.7379     C
H        0.192   0.7749   0.5745     H
H        0.201   0.3226   0.8207     H
H       0.2083   0.2495   0.5496     H
C        0.215   0.5922 0.66666667     C
C       0.2216   0.7333   0.2082     C
C        0.232   0.4979    0.232     C
C       0.2388   0.2588   0.2463     C
C       0.2437   0.0804   0.6394     C
O        0.244   0.7026   0.1314     O
H       0.2445    0.532   0.6273     H
C       0.2448   0.0168   0.7034     C
O       0.2452   0.8594  0.23556     O
H       0.2497   0.4663   0.8769     H
O       0.2531   0.1968   0.9312     O
C       0.2644   0.6412   0.2573     C
C       0.2766   0.4143  0.27596     C
H       0.2774   0.1574   0.0547     H
C       0.2829   0.4117   0.8362     C
H       0.2883   0.9028   0.8802     H
H       0.2886    0.769   0.9757     H
O       0.2922   0.1842  0.28034     O
H       0.2976   0.6822   0.6779     H
C       0.3177   0.4939   0.7692     C
H       0.3194   0.0907   0.6055     H
H       0.3229   0.9855   0.7139     H
C       0.3385    0.701   0.3282     C
H       0.3538   0.4407    0.729     H
C       0.3563   0.4735   0.3446     C
H       0.3569   0.7964   0.3465     H
C       0.3668   0.1462   0.0679     C
N       0.3685   0.0701  0.12356     N
C       0.3755   0.8095    0.951     C
C       0.3757   0.8887   0.8943     C
C       0.3783   0.2851   0.9271     C
C       0.3854   0.6169   0.3718     C
H       0.3903   0.4182   0.3726     H
H       0.3975   0.5843   0.7851     H
C       0.4147   0.3799   0.8663     C
H       0.4229   0.6443   0.0347     H
O       0.4294   0.3608   0.5327     O
O         0.45   0.7938  0.47984     O
H       0.4549    0.335   0.8243     H
C       0.4761   0.6826   0.4453     C
C       0.4923   0.2089   0.0293     C
N       0.4924   0.2924   0.9719     N
H       0.4924   0.4692   0.8868     H
C        0.496    0.053   0.1416     C
H       0.4979   0.9996     0.18     H
H       0.5021   0.0004     0.82     H
C        0.504    0.947   0.8584     C
H       0.5076   0.5308   0.1132     H
N       0.5076   0.7076   0.0281     N
C       0.5077   0.7911   0.9707     C
C       0.5239   0.3174   0.5547     C
H       0.5451    0.665   0.1757     H
O         0.55   0.2062  0.52016     O
O       0.5706   0.6392   0.4673     O
H       0.5771   0.3557   0.9653     H
C       0.5853   0.6201   0.1337     C
H       0.6025   0.4157   0.2149     H
H       0.6097   0.5818   0.6274     H
C       0.6146   0.3831   0.6282     C
C       0.6217   0.7149   0.0729     C
C       0.6243   0.1113   0.1057     C
C       0.6245   0.1905    0.049     C
N       0.6315   0.9299  0.87644     N
C       0.6332   0.8538   0.9321     C
H       0.6431   0.2036   0.6535     H
C       0.6437   0.5265   0.6554     C
H       0.6462   0.5593    0.271     H
C       0.6615    0.299   0.6718     C
H       0.6771   0.0145   0.2861     H
H       0.6806   0.9093   0.3945     H
C       0.6823   0.5061   0.2308     C
H       0.7024   0.3178   0.3221     H
O       0.7078   0.8158  0.71966     O
H       0.7114    0.231   0.0243     H
H       0.7117   0.0972   0.1198     H
C       0.7171   0.5883   0.1638     C
H       0.7226   0.8426   0.9453     H
C       0.7234   0.5857  0.72404     C
C       0.7356   0.3588   0.7427     C
O       0.7469   0.8032   0.0688     O
H       0.7503   0.5337   0.1231     H
O       0.7548   0.1406  0.76444     O
C       0.7552   0.9832   0.2966     C
H       0.7555    0.468   0.3727     H
O        0.756   0.2974   0.8686     O
C       0.7563   0.9196   0.3606     C
C       0.7612   0.7412   0.7537     C
C        0.768   0.5021    0.768     C
C       0.7784   0.2667   0.7918     C
C        0.785   0.4078 0.33333333     C
H       0.7917   0.7505   0.4504     H
H        0.799   0.6774   0.1793     H
H        0.808   0.2251   0.4255     H
C       0.8143   0.4786   0.2621     C
H         0.82   0.5429   0.8147     H
Co     0.82301  0.99742  0.80881    Co
H       0.8448   0.4185   0.2232     H
O       0.8456   0.7957  0.81299     O
O       0.8586   0.3264   0.8517     O
H        0.869    0.044   0.2065     H
C       0.8702   0.9996   0.2488     C
C       0.8732   0.8717   0.3729     C
O       0.8748   0.1211  0.54014     O
N       0.8764   0.8024  0.43595     N
H       0.8793   0.3745   0.4758     H
H       0.8845   0.6442   0.5303     H
C        0.897   0.3101   0.4343     C
H        0.897   0.5685   0.2737     H
C       0.9216   0.3809   0.3632     C
H       0.9284   0.1702   0.8733     H
H       0.9397   0.1438   0.6714     H
H       0.9493   0.7887   0.5856     H
H        0.951   0.3213   0.3235     H
O       0.9529   0.1241  0.90438     O
H       0.9548   0.8635   0.0999     H
C       0.9717   0.7302   0.5427     C
C       0.9831   0.8903   0.3209     C
N       0.9841   0.9549  0.26002     N
H       0.9961   0.5288    0.626     H
C       0.9998   0.1901   0.5244     C
