data_I
_chemical_name_common  '/home/zhangsd/repos/MofS-CGCNN/ML/data/WS24/clean_cifs/VOPWEE'
_cell_length_a 10.40960
_cell_length_b 13.01306
_cell_length_c 19.82030
_cell_angle_alpha 90.15764
_cell_angle_beta  90.00000
_cell_angle_gamma 113.57614
_space_group_name_H-M_alt      'P 1'


loop_
_space_group_symop_operation_xyz
  'x, y, z' 

loop_
_atom_site_label
_atom_site_fract_x
_atom_site_fract_y
_atom_site_fract_z
_atom_site_type_symbol
O      0.00102  0.12824   0.8292     O
C      0.00113  0.87258  0.79345     C
C        0.002  0.54576  0.11196     C
N      0.00449  0.28562  0.93304     N
H       0.0059   0.4212   0.1656     H
H       0.0135   0.3774   0.7344     H
O      0.01526  0.93804  0.41863     O
C       0.0174  0.90138  0.91989     C
C      0.01767  0.14854  0.33218     C
H       0.0311    0.095   0.7083     H
O      0.03854  0.84568  0.61264     O
C      0.04329  0.83632  0.73419     C
C      0.04919  0.66186  0.10956     C
Co    0.054365  0.89707 0.071925    Co
C      0.05528  0.37416  0.63335     C
C      0.05747  0.85984  0.85501     C
N      0.05922   0.4894  0.15596     N
H       0.0631   0.6692    0.491     H
H       0.0639    0.095   0.2083     H
H       0.0697    0.497   0.7019     H
O      0.07722  0.06196  0.08137     O
C      0.08208  0.42696  0.70325     C
O      0.08246  0.89328  0.97178     O
H        0.084   0.3118   0.6329     H
H       0.0866   0.7838   0.4568     H
C      0.09648  0.66796  0.38934     C
C      0.10848  0.51796  0.92977     C
C      0.10887  0.34854  0.97383     C
H       0.1132    0.429   0.6011     H
C      0.11602  0.09862  0.58011     C
C      0.11952   0.7238   0.4581     C
H       0.1208   0.7048   0.1386     H
H       0.1247   0.6054    0.391     H
O      0.12722  0.12824   0.3292     O
C      0.12855  0.12742  0.70655     C
C      0.13087  0.14854  0.83218     C
C      0.13856  0.78638  0.73662     C
H       0.1387   0.3796   0.2317     H
H       0.1441   0.5958   0.9285     H
H       0.1457   0.3128    0.004     H
C       0.1518   0.8087  0.85746     C
H       0.1553   0.7212   0.3565     H
Co    0.157295  0.10293 0.428075    Co
C      0.16427  0.46414  0.97295     C
H       0.1666   0.7634   0.6968     H
H       0.1671   0.3128    0.504     H
H       0.1881   0.7998   0.8989     H
C      0.18823  0.53052  0.18465     C
O      0.18918  0.10672  0.52822     O
O      0.19286  0.15432  0.88736     O
C       0.1931  0.77026  0.79859     C
C      0.19763  0.14016  0.64499     C
C      0.20697  0.16368  0.76581     C
C      0.22057  0.44974  0.22932     C
H       0.2228   0.8456   0.5538     H
H       0.2278   0.3118   0.1329     H
C      0.22917  0.44974  0.72932     C
H       0.2384   0.5052   0.0013     H
H       0.2395   0.4806   0.7746     H
C      0.23967  0.34854  0.47383     C
H       0.2409   0.3796   0.7317     H
H       0.2411   0.4806   0.2746     H
H       0.2531   0.9664   0.3325     H
H       0.2668   0.5052   0.5013     H
N      0.26847  0.93292  0.09102     N
C      0.27037   0.7717   0.4815     C
O      0.27308  0.62632  0.17486     O
N      0.28113  0.28562  0.43304     N
N      0.28124  0.71454  0.80263     N
H       0.2867   0.0336   0.1675     H
H       0.2909   0.8378   0.0187     H
N      0.29442  0.83706  0.53743     N
C      0.29987  0.46414  0.47295     C
H       0.3028   0.2162   0.0432     H
H       0.3065    0.691   0.7665     H
H       0.3109   0.7034   0.8413     H
H       0.3158    0.429   0.1011     H
C      0.31888  0.37416  0.13335     C
C      0.33357  0.99834  0.14291     C
C      0.33523  0.00166  0.35709     C
N      0.33555  0.06708  0.40898     N
C      0.33586   0.8819  0.05556     C
C      0.34229  0.53052  0.68465     C
H       0.3428    0.971   0.6382     H
C       0.3431   0.1913  0.64254     C
C      0.34488  0.42696  0.20325     C
C      0.35218  0.21362  0.76338     C
O      0.35324  0.62632  0.67486     O
O      0.36198  0.75234  0.45236     O
H       0.3639   0.3774   0.2344     H
H       0.3718    0.029   0.8618     H
H       0.3772   0.1544   0.9462     H
H       0.3845    0.691   0.2665     H
C      0.38733  0.33814  0.39044     C
H       0.3883   0.2002   0.6011     H
O      0.39036  0.75234  0.95236     O
H       0.3925   0.7034   0.3413     H
H       0.3939   0.3308    0.009     H
C      0.39572   0.2762   0.0419     C
H       0.4032   0.2366   0.8032     H
C      0.40948  0.51796  0.42977     C
H       0.4153   0.4212   0.6656     H
H        0.416   0.2952   0.3614     H
C      0.42162  0.89264  0.57193     C
C      0.42284  0.22974  0.70141     C
C      0.42359   0.9614  0.62595     C
H       0.4273    0.497   0.2019     H
C      0.42852  0.33204  0.11066     C
N      0.43018   0.4894  0.65596     N
N       0.4333  0.71454  0.30263     N
H       0.4341   0.2788   0.1435     H
H       0.4499   0.9372    0.303     H
H       0.4517   0.5958   0.4285     H
H       0.4531   0.1622   0.4813     H
C      0.45334  0.98468   0.3388     C
C      0.45396   0.1181  0.44444     C
C      0.45624  0.45424  0.38804     C
N      0.45736  0.16294  0.96257     N
C      0.46219   0.0386  0.87405     C
C      0.46866  0.01532   0.1612     C
C      0.47102  0.89264  0.07193     C
H       0.4807   0.6054    0.891     H
H       0.4873   0.9372    0.803     H
C      0.49867   0.2283   0.0185     C
C      0.50133   0.7717   0.9815     C
H       0.5127   0.0628    0.197     H
H       0.5193   0.3946    0.109     H
C      0.52898  0.10736  0.92807     C
C      0.53134  0.98468   0.8388     C
C      0.53781   0.9614  0.12595     C
N      0.54264  0.83706  0.03743     N
C      0.54376  0.54576  0.61196     C
C      0.54604   0.8819  0.55556     C
C      0.54666  0.01532   0.6612     C
H       0.5469   0.8378   0.5187     H
H       0.5483   0.4042   0.5715     H
H       0.5501   0.0628    0.697     H
H       0.5659   0.7212   0.8565     H
N       0.5667  0.28546  0.69737     N
N      0.56982   0.5106  0.34404     N
C      0.57148  0.66796  0.88934     C
H       0.5727    0.503   0.7981     H
C      0.57641   0.0386  0.37405     C
C      0.57716  0.77026  0.29859     C
C      0.57838  0.10736  0.42807     C
H        0.584   0.7048   0.6386     H
H       0.5847   0.5788   0.3344     H
C      0.59052  0.48204  0.57023     C
H       0.5968   0.7634   0.1968     H
C      0.60428   0.7238   0.9581     C
H       0.6061   0.6692    0.991     H
H       0.6075   0.2966   0.6587     H
O      0.60964  0.24766  0.04764     O
H       0.6117   0.7998   0.3989     H
C      0.61267  0.66186  0.60956     C
H       0.6155    0.309   0.7335     H
H       0.6228   0.8456   0.0538     H
H       0.6282    0.971   0.1382     H
H       0.6361   0.6226   0.7656     H
O      0.63802  0.24766  0.54764     O
O      0.64676  0.37368  0.32514     O
C      0.64782  0.78638  0.23662     C
C      0.65512  0.57304  0.79675     C
C       0.6569   0.8087  0.35746     C
H       0.6572    0.029   0.3618     H
C      0.65771  0.46948  0.31535     C
C      0.66414   0.1181  0.94444     C
N      0.66445  0.93292  0.59102     N
C      0.66477  0.99834  0.64291     C
C      0.66643  0.00166  0.85709     C
C      0.68112  0.62584  0.86665     C
H       0.6842    0.571   0.8989     H
H       0.6891   0.2966   0.1587     H
H       0.6935    0.309   0.2335     H
H       0.6972   0.7838   0.9568     H
C      0.70013  0.53586  0.52705     C
N      0.70558  0.16294  0.46257     N
H       0.7091   0.1622   0.9813     H
H       0.7133   0.9664   0.8325     H
N      0.71876  0.28546  0.19737     N
N      0.71887  0.71438  0.56696     N
O      0.72692  0.37368  0.82514     O
C      0.72963   0.2283   0.5185     C
N      0.73153  0.06708  0.90898     N
H       0.7332   0.4948   0.4987     H
H       0.7469   0.0336   0.6675     H
H       0.7589   0.5194   0.7254     H
H       0.7591   0.6204   0.2683     H
C      0.76033  0.65146  0.52617     C
H       0.7605   0.5194   0.2254     H
H       0.7616   0.4948   0.9987     H
C      0.77083  0.55026  0.27068     C
H       0.7722   0.6882   0.8671     H
H       0.7772   0.1544   0.4462     H
C      0.77943  0.55026  0.77068     C
C      0.79303  0.83632  0.23419     C
C      0.80237  0.85984  0.35501     C
C       0.8069  0.22974  0.20141     C
O      0.80714  0.84568  0.11264     O
O      0.81082  0.89328  0.47178     O
C      0.81177  0.46948  0.81535     C
H       0.8119   0.2002   0.1011     H
H       0.8329   0.6872    0.496     H
H       0.8334   0.2366   0.3032     H
C      0.83573  0.53586  0.02705     C
Co    0.842705  0.89707 0.571925    Co
H       0.8447   0.2788   0.6435     H
C       0.8482   0.1913  0.14254     C
H       0.8543   0.6872    0.996     H
H       0.8559   0.4042   0.0715     H
H       0.8613   0.6204   0.7683     H
C      0.86144  0.21362  0.26338     C
C      0.86913  0.85146  0.16782     C
C      0.87145  0.87258  0.29345     C
O      0.87278  0.87176   0.6708     O
H       0.8753   0.3946    0.609     H
H       0.8792   0.2952   0.8614     H
C      0.88048   0.2762   0.5419     C
C      0.88398  0.90138  0.41989     C
H       0.8868    0.571   0.3989     H
C      0.89113  0.65146  0.02617     C
C      0.89152  0.48204  0.07023     C
C      0.90352  0.33204  0.61066     C
H       0.9134   0.2162   0.5432     H
H        0.916   0.6882   0.3671     H
O      0.91754  0.10672  0.02822     O
C      0.91792  0.57304  0.29675     C
O      0.92278  0.93804  0.91863     O
H       0.9303    0.503   0.2981     H
H       0.9361    0.905   0.7917     H
H       0.9369   0.3308    0.509     H
N      0.94078   0.5106  0.84404     N
C      0.94253  0.14016  0.14499     C
C      0.94472  0.62584  0.36665     C
Co    0.945635  0.10293 0.928075    Co
C      0.95081  0.33814  0.89044     C
C      0.95671  0.16368  0.26581     C
O      0.96146  0.15432  0.38736     O
H       0.9689    0.905   0.2917     H
C      0.98233  0.85146  0.66782     C
C       0.9826  0.09862  0.08011     C
O      0.98474  0.06196  0.58137     O
H       0.9865   0.6226   0.2656     H
H       0.9941   0.5788   0.8344     H
N      0.99551  0.71438  0.06696     N
C        0.998  0.45424  0.88804     C
C      0.99887  0.12742  0.20655     C
O      0.99898  0.87176   0.1708     O
