data_I
_chemical_name_common  '/home/zhangsd/repos/MofS-CGCNN/ML/data/WS24/clean_cifs/VOQJOC'
_cell_length_a 13.69359
_cell_length_b 13.69359
_cell_length_c 14.32200
_cell_angle_alpha 111.38323
_cell_angle_beta  111.38323
_cell_angle_gamma 90.47042
_space_group_name_H-M_alt      'P 1'


loop_
_space_group_symop_operation_xyz
  'x, y, z' 

loop_
_atom_site_label
_atom_site_fract_x
_atom_site_fract_y
_atom_site_fract_z
_atom_site_type_symbol
Co         0.0      0.5      0.0    Co
Co         0.0      0.5      0.5    Co
H       0.0048   0.2554   0.4438     H
O      0.01766  0.90664  0.08767     O
H       0.0234   0.9286   0.5894     H
O        0.031  0.40194  0.85971     O
C      0.03235  0.13893   0.2046     C
H       0.0399   0.7477   0.2801     H
H       0.0403   0.4907   0.3454     H
C      0.04034  0.89502   0.3484     C
O      0.05118  0.23114  0.26894     O
H       0.0524     0.74   0.0678     H
O      0.05479  0.44461  0.37325     O
H       0.0651   0.4329    0.819     H
N      0.06557  0.91111   0.8691     N
C      0.06753  0.74383   0.5736     C
H       0.0714   0.9766   0.9106     H
C      0.07965  0.12491   0.7081     C
N      0.08406  0.80542  0.32459     N
H       0.0854   0.4006   0.3387     H
H       0.0859   0.3729    0.898     H
N      0.08889  0.93443   0.6309     N
O      0.09336  0.98234  0.41233     O
O      0.09909  0.42645  0.09402     O
H          0.1   0.7118   0.8379     H
O       0.1022  0.48352  0.74659     O
N      0.10223  0.65033  0.55722     N
C      0.10498  0.95966   0.1516     C
H       0.1167   0.1941    0.745     H
C      0.12102  0.72434  0.08329     C
O      0.12195  0.44185  0.58957     O
C      0.12491  0.07965   0.2081     C
C      0.13421  0.83955  0.61527     C
N      0.13474  0.62248  0.05302     N
C      0.13893  0.03235   0.7046     C
C      0.14443  0.43707  0.68132     C
C      0.15986  0.36152   0.0697     C
C      0.16045  0.86579  0.88473     C
C      0.16231  0.75851    0.863     C
H       0.1624   0.6324   0.3048     H
O      0.16371  0.32097  0.97688     O
C       0.1922   0.7936  0.36273     C
H       0.1941   0.1167    0.245     H
N      0.19458  0.91594  0.17541     N
H        0.198   0.4262    0.283     H
C      0.20614  0.65044   0.5815     C
C       0.2064   0.8078  0.13727     C
C      0.21629  0.69097   0.3413     C
H       0.2273   0.2967   0.5611     H
C      0.22804  0.37136  0.71246     C
O      0.23114  0.05118  0.76894     O
H       0.2314   0.5862   0.5715     H
C       0.2335   0.6006   0.0725     C
C      0.23506  0.33194   0.1578     C
C      0.24141  0.37699  0.26512     C
C      0.24149  0.83769    0.637     C
H        0.243   0.5298     0.05     H
H       0.2523   0.9601   0.2199     H
H       0.2551   0.4239   0.8726     H
H       0.2554   0.0048   0.9438     H
C      0.25617  0.93247   0.9264     C
C      0.25752  0.30042  0.63217     C
C        0.259  0.72286   0.8796     C
H         0.26   0.9476   0.4322     H
H       0.2624   0.6512   0.8645     H
C      0.27418  0.37678   0.8187     C
C      0.27566  0.87898  0.41671     C
C      0.27714    0.741   0.6204     C
H       0.2882      0.9   0.6621     H
H       0.2967   0.2273   0.0611     H
C      0.30042  0.25752  0.13217     C
C      0.30903  0.78371   0.1587     C
C      0.31249  0.34829    0.345     C
H       0.3169   0.3789   0.4163     H
O      0.32097  0.16371  0.47688     O
C      0.32111  0.67809   0.3752     C
C      0.32191  0.67889   0.1248     C
C      0.33194  0.23506   0.6578     C
H       0.3392   0.6106   0.3632     H
C      0.34829  0.31249    0.845     C
H       0.3488   0.7376   0.6355     H
C      0.34956  0.79386   0.9185     C
N      0.34967  0.89777  0.94278     N
C      0.36152  0.15986   0.5697     C
H       0.3676   0.8376   0.1952     H
C      0.37136  0.22804  0.21246     C
H       0.3729   0.0859    0.398     H
C      0.37678  0.27418   0.3187     C
C      0.37699  0.24141  0.76512     C
N      0.37752  0.86526  0.44698     N
H       0.3789   0.3169   0.9163     H
H       0.3894   0.6608   0.1368     H
C       0.3994   0.7665   0.4275     C
H       0.4006   0.0854   0.8387     H
O      0.40194    0.031  0.35971     O
H       0.4138   0.7686   0.9285     H
H       0.4239   0.2551   0.3726     H
H       0.4262    0.198    0.783     H
O      0.42645  0.09909  0.59402     O
H       0.4329   0.0651    0.319     H
C      0.43707  0.14443  0.18132     C
O      0.44185  0.12195  0.08957     O
O      0.44461  0.05479  0.87325     O
H       0.4702    0.757     0.45     H
O      0.48352   0.1022  0.24659     O
H       0.4907   0.0403   0.8454     H
Co         0.5      0.0      0.0    Co
Co         0.5      0.0      0.5    Co
H       0.5093   0.9597   0.1546     H
O      0.51648   0.8978  0.75341     O
H       0.5298    0.243     0.55     H
O      0.55539  0.94521  0.12675     O
O      0.55815  0.87805  0.91043     O
C      0.56293  0.85557  0.81868     C
H       0.5671   0.9349    0.681     H
O      0.57355  0.90091  0.40598     O
H       0.5738    0.802    0.217     H
H       0.5761   0.7449   0.6274     H
H       0.5862   0.2314   0.0715     H
O      0.59806    0.969  0.64029     O
H       0.5994   0.9146   0.1613     H
C       0.6006   0.2335   0.5725     C
H       0.6106   0.3392   0.8632     H
H       0.6211   0.6831   0.0837     H
N      0.62248  0.13474  0.55302     N
C      0.62301  0.75859  0.23488     C
C      0.62322  0.72582   0.6813     C
H       0.6271   0.9141    0.602     H
C      0.62864  0.77196  0.78754     C
H       0.6324   0.1624   0.8048     H
C      0.63848  0.84014   0.4303     C
N      0.65033  0.10223  0.05722     N
C      0.65044  0.20614   0.0815     C
H       0.6512   0.2624   0.3645     H
C      0.65171  0.68751    0.155     C
H       0.6608   0.3894   0.6368     H
C      0.66806  0.76494   0.3422     C
C      0.67809  0.32111   0.8752     C
C      0.67889  0.32191   0.6248     C
O      0.67903  0.83629  0.52312     O
H       0.6831   0.6211   0.5837     H
C      0.68751  0.65171    0.655     C
C      0.69097  0.21629   0.8413     C
C      0.69958  0.74248  0.86783     C
H       0.7033   0.7727   0.9389     H
H       0.7118      0.1   0.3379     H
C      0.72286    0.259   0.3796     C
C      0.72434  0.12102  0.58329     C
C      0.72582  0.62322   0.1813     C
H       0.7376   0.3488   0.1355     H
H         0.74   0.0524   0.5678     H
C        0.741  0.27714   0.1204     C
C      0.74248  0.69958  0.36783     C
C      0.74383  0.06753   0.0736     C
H       0.7446   0.9952   0.0562     H
H       0.7449   0.5761   0.1274     H
H       0.7477   0.0399   0.7801     H
H        0.757   0.4702     0.95     H
C      0.75851  0.16231    0.363     C
C      0.75859  0.62301  0.73488     C
C      0.76494  0.66806   0.8422     C
C       0.7665   0.3994   0.9275     C
H       0.7686   0.4138   0.4285     H
O      0.76886  0.94882  0.23106     O
C      0.77196  0.62864  0.28754     C
H       0.7727   0.7033   0.4389     H
C      0.78371  0.30903   0.6587     C
C       0.7936   0.1922  0.86273     C
C      0.79386  0.34956   0.4185     C
H        0.802   0.5738    0.717     H
N      0.80542  0.08406  0.82459     N
H       0.8059   0.8833    0.755     H
C       0.8078   0.2064  0.63727     C
O      0.83629  0.67903  0.02312     O
H       0.8376   0.3676   0.6952     H
C      0.83769  0.24149    0.137     C
C      0.83955  0.13421  0.11527     C
C      0.84014  0.63848   0.9303     C
C      0.85557  0.56293  0.31868     C
C      0.86107  0.96765   0.2954     C
N      0.86526  0.37752  0.94698     N
C      0.86579  0.16045  0.38473     C
C      0.87509  0.92035   0.7919     C
O      0.87805  0.55815  0.41043     O
C      0.87898  0.27566  0.91671     C
H       0.8833   0.8059    0.255     H
C      0.89502  0.04034   0.8484     C
N      0.89777  0.34967  0.44278     N
O       0.8978  0.51648  0.25341     O
H          0.9   0.2882   0.1621     H
O      0.90091  0.57355  0.90598     O
O      0.90664  0.01766  0.58767     O
N      0.91111  0.06557   0.3691     N
H       0.9141   0.6271    0.102     H
H       0.9146   0.5994   0.6613     H
N      0.91594  0.19458  0.67541     N
C      0.92035  0.87509   0.2919     C
H       0.9286   0.0234   0.0894     H
C      0.93247  0.25617   0.4264     C
N      0.93443  0.08889   0.1309     N
H       0.9349   0.5671    0.181     H
O      0.94521  0.55539  0.62675     O
H       0.9476     0.26   0.9322     H
O      0.94882  0.76886  0.73106     O
C      0.95966  0.10498   0.6516     C
H       0.9597   0.5093   0.6546     H
H       0.9601   0.2523   0.7199     H
C      0.96765  0.86107   0.7954     C
O        0.969  0.59806  0.14029     O
H       0.9766   0.0714   0.4106     H
O      0.98234  0.09336  0.91233     O
H       0.9952   0.7446   0.5562     H
