data_I
_chemical_name_common  '/home/zhangsd/repos/MofS-CGCNN/ML/data/WS24/clean_cifs/WABVOL'
_cell_length_a 14.38280
_cell_length_b 14.38280
_cell_length_c 14.38280
_cell_angle_alpha 90.00000
_cell_angle_beta  90.00000
_cell_angle_gamma 90.00000
_space_group_name_H-M_alt      'P 1'


loop_
_space_group_symop_operation_xyz
  'x, y, z' 

loop_
_atom_site_label
_atom_site_fract_x
_atom_site_fract_y
_atom_site_fract_z
_atom_site_type_symbol
K          0.0      0.0    0.385     K
K          0.0      0.0    0.615     K
O          0.0   0.2491   0.3589     O
O          0.0   0.2491   0.6411     O
Cu         0.0     0.25      0.5    Cu
C          0.0   0.3344   0.3344     C
C          0.0   0.3344   0.6656     C
O          0.0   0.3589   0.2491     O
O          0.0   0.3589   0.7509     O
K          0.0    0.385      0.0     K
O          0.0   0.3976   0.3976     O
O          0.0   0.3976   0.6024     O
Cu         0.0      0.5     0.25    Cu
Cu         0.0      0.5     0.75    Cu
O          0.0   0.6024   0.3976     O
O          0.0   0.6024   0.6024     O
K          0.0    0.615      0.0     K
O          0.0   0.6411   0.2491     O
O          0.0   0.6411   0.7509     O
C          0.0   0.6656   0.3344     C
C          0.0   0.6656   0.6656     C
Cu         0.0     0.75      0.5    Cu
O          0.0   0.7509   0.3589     O
O          0.0   0.7509   0.6411     O
O       0.1024   0.1024      0.5     O
O       0.1024      0.5   0.1024     O
O       0.1024      0.5   0.8976     O
O       0.1024   0.8976      0.5     O
K        0.115      0.5      0.5     K
O       0.1411   0.2509      0.5     O
O       0.1411      0.5   0.2509     O
O       0.1411      0.5   0.7491     O
O       0.1411   0.7491      0.5     O
C       0.1656   0.1656      0.5     C
C       0.1656      0.5   0.1656     C
C       0.1656      0.5   0.8344     C
C       0.1656   0.8344      0.5     C
O       0.2491      0.0   0.3589     O
O       0.2491      0.0   0.6411     O
O       0.2491   0.3589      0.0     O
O       0.2491   0.6411      0.0     O
Cu        0.25      0.0      0.5    Cu
Cu        0.25      0.5      0.0    Cu
O       0.2509   0.1411      0.5     O
O       0.2509      0.5   0.1411     O
O       0.2509      0.5   0.8589     O
O       0.2509   0.8589      0.5     O
C       0.3344      0.0   0.3344     C
C       0.3344      0.0   0.6656     C
C       0.3344   0.3344      0.0     C
C       0.3344   0.6656      0.0     C
O       0.3589      0.0   0.2491     O
O       0.3589      0.0   0.7509     O
O       0.3589   0.2491      0.0     O
O       0.3589   0.7509      0.0     O
K        0.385      0.0      0.0     K
O       0.3976      0.0   0.3976     O
O       0.3976      0.0   0.6024     O
O       0.3976   0.3976      0.0     O
O       0.3976   0.6024      0.0     O
Cu         0.5      0.0     0.25    Cu
Cu         0.5      0.0     0.75    Cu
O          0.5   0.1024   0.1024     O
O          0.5   0.1024   0.8976     O
K          0.5    0.115      0.5     K
O          0.5   0.1411   0.2509     O
O          0.5   0.1411   0.7491     O
C          0.5   0.1656   0.1656     C
C          0.5   0.1656   0.8344     C
Cu         0.5     0.25      0.0    Cu
O          0.5   0.2509   0.1411     O
O          0.5   0.2509   0.8589     O
K          0.5      0.5    0.115     K
K          0.5      0.5    0.885     K
O          0.5   0.7491   0.1411     O
O          0.5   0.7491   0.8589     O
Cu         0.5     0.75      0.0    Cu
C          0.5   0.8344   0.1656     C
C          0.5   0.8344   0.8344     C
O          0.5   0.8589   0.2509     O
O          0.5   0.8589   0.7491     O
K          0.5    0.885      0.5     K
O          0.5   0.8976   0.1024     O
O          0.5   0.8976   0.8976     O
O       0.6024      0.0   0.3976     O
O       0.6024      0.0   0.6024     O
O       0.6024   0.3976      0.0     O
O       0.6024   0.6024      0.0     O
K        0.615      0.0      0.0     K
O       0.6411      0.0   0.2491     O
O       0.6411      0.0   0.7509     O
O       0.6411   0.2491      0.0     O
O       0.6411   0.7509      0.0     O
C       0.6656      0.0   0.3344     C
C       0.6656      0.0   0.6656     C
C       0.6656   0.3344      0.0     C
C       0.6656   0.6656      0.0     C
O       0.7491   0.1411      0.5     O
O       0.7491      0.5   0.1411     O
O       0.7491      0.5   0.8589     O
O       0.7491   0.8589      0.5     O
Cu        0.75      0.0      0.5    Cu
Cu        0.75      0.5      0.0    Cu
O       0.7509      0.0   0.3589     O
O       0.7509      0.0   0.6411     O
O       0.7509   0.3589      0.0     O
O       0.7509   0.6411      0.0     O
C       0.8344   0.1656      0.5     C
C       0.8344      0.5   0.1656     C
C       0.8344      0.5   0.8344     C
C       0.8344   0.8344      0.5     C
O       0.8589   0.2509      0.5     O
O       0.8589      0.5   0.2509     O
O       0.8589      0.5   0.7491     O
O       0.8589   0.7491      0.5     O
K        0.885      0.5      0.5     K
O       0.8976   0.1024      0.5     O
O       0.8976      0.5   0.1024     O
O       0.8976      0.5   0.8976     O
O       0.8976   0.8976      0.5     O
