data_I
_chemical_name_common  '/home/zhangsd/repos/MofS-CGCNN/ML/data/WS24/clean_cifs/WABWAY'
_cell_length_a 14.41130
_cell_length_b 14.41130
_cell_length_c 14.41130
_cell_angle_alpha 90.00000
_cell_angle_beta  90.00000
_cell_angle_gamma 90.00000
_space_group_name_H-M_alt      'P 1'


loop_
_space_group_symop_operation_xyz
  'x, y, z' 

loop_
_atom_site_label
_atom_site_fract_x
_atom_site_fract_y
_atom_site_fract_z
_atom_site_type_symbol
Na         0.0      0.0      0.5    Na
O          0.0   0.2477   0.3582     O
O          0.0   0.2477   0.6418     O
Cu         0.0     0.25      0.5    Cu
C          0.0   0.3337   0.3337     C
C          0.0   0.3337   0.6663     C
O          0.0   0.3582   0.2477     O
O          0.0   0.3582   0.7523     O
O          0.0   0.3951   0.3951     O
O          0.0   0.3951   0.6049     O
Na         0.0      0.5      0.0    Na
Cu         0.0      0.5     0.25    Cu
Na         0.0      0.5      0.5    Na
Cu         0.0      0.5     0.75    Cu
O          0.0   0.6049   0.3951     O
O          0.0   0.6049   0.6049     O
O          0.0   0.6418   0.2477     O
O          0.0   0.6418   0.7523     O
C          0.0   0.6663   0.3337     C
C          0.0   0.6663   0.6663     C
Cu         0.0     0.75      0.5    Cu
O          0.0   0.7523   0.3582     O
O          0.0   0.7523   0.6418     O
O       0.1049   0.1049      0.5     O
O       0.1049      0.5   0.1049     O
O       0.1049      0.5   0.8951     O
O       0.1049   0.8951      0.5     O
O       0.1418   0.2523      0.5     O
O       0.1418      0.5   0.2523     O
O       0.1418      0.5   0.7477     O
O       0.1418   0.7477      0.5     O
C       0.1663   0.1663      0.5     C
C       0.1663      0.5   0.1663     C
C       0.1663      0.5   0.8337     C
C       0.1663   0.8337      0.5     C
O       0.2477      0.0   0.3582     O
O       0.2477      0.0   0.6418     O
O       0.2477   0.3582      0.0     O
O       0.2477   0.6418      0.0     O
Cu        0.25      0.0      0.5    Cu
Cu        0.25      0.5      0.0    Cu
O       0.2523   0.1418      0.5     O
O       0.2523      0.5   0.1418     O
O       0.2523      0.5   0.8582     O
O       0.2523   0.8582      0.5     O
C       0.3337      0.0   0.3337     C
C       0.3337      0.0   0.6663     C
C       0.3337   0.3337      0.0     C
C       0.3337   0.6663      0.0     C
O       0.3582      0.0   0.2477     O
O       0.3582      0.0   0.7523     O
O       0.3582   0.2477      0.0     O
O       0.3582   0.7523      0.0     O
O       0.3951      0.0   0.3951     O
O       0.3951      0.0   0.6049     O
O       0.3951   0.3951      0.0     O
O       0.3951   0.6049      0.0     O
Na         0.5      0.0      0.0    Na
Cu         0.5      0.0     0.25    Cu
Na         0.5      0.0      0.5    Na
Cu         0.5      0.0     0.75    Cu
O          0.5   0.1049   0.1049     O
O          0.5   0.1049   0.8951     O
O          0.5   0.1418   0.2523     O
O          0.5   0.1418   0.7477     O
C          0.5   0.1663   0.1663     C
C          0.5   0.1663   0.8337     C
Cu         0.5     0.25      0.0    Cu
O          0.5   0.2523   0.1418     O
O          0.5   0.2523   0.8582     O
Na         0.5      0.5      0.0    Na
O          0.5   0.7477   0.1418     O
O          0.5   0.7477   0.8582     O
Cu         0.5     0.75      0.0    Cu
C          0.5   0.8337   0.1663     C
C          0.5   0.8337   0.8337     C
O          0.5   0.8582   0.2523     O
O          0.5   0.8582   0.7477     O
O          0.5   0.8951   0.1049     O
O          0.5   0.8951   0.8951     O
O       0.6049      0.0   0.3951     O
O       0.6049      0.0   0.6049     O
O       0.6049   0.3951      0.0     O
O       0.6049   0.6049      0.0     O
O       0.6418      0.0   0.2477     O
O       0.6418      0.0   0.7523     O
O       0.6418   0.2477      0.0     O
O       0.6418   0.7523      0.0     O
C       0.6663      0.0   0.3337     C
C       0.6663      0.0   0.6663     C
C       0.6663   0.3337      0.0     C
C       0.6663   0.6663      0.0     C
O       0.7477   0.1418      0.5     O
O       0.7477      0.5   0.1418     O
O       0.7477      0.5   0.8582     O
O       0.7477   0.8582      0.5     O
Cu        0.75      0.0      0.5    Cu
Cu        0.75      0.5      0.0    Cu
O       0.7523      0.0   0.3582     O
O       0.7523      0.0   0.6418     O
O       0.7523   0.3582      0.0     O
O       0.7523   0.6418      0.0     O
C       0.8337   0.1663      0.5     C
C       0.8337      0.5   0.1663     C
C       0.8337      0.5   0.8337     C
C       0.8337   0.8337      0.5     C
O       0.8582   0.2523      0.5     O
O       0.8582      0.5   0.2523     O
O       0.8582      0.5   0.7477     O
O       0.8582   0.7477      0.5     O
O       0.8951   0.1049      0.5     O
O       0.8951      0.5   0.1049     O
O       0.8951      0.5   0.8951     O
O       0.8951   0.8951      0.5     O
