data_I
_chemical_name_common  '/home/zhangsd/repos/MofS-CGCNN/ML/data/WS24/clean_cifs/WAFKEU02'
_cell_length_a 10.98300
_cell_length_b 10.98300
_cell_length_c  9.70200
_cell_angle_alpha 90.00000
_cell_angle_beta  90.00000
_cell_angle_gamma 90.00000
_space_group_name_H-M_alt      'P 1'


loop_
_space_group_symop_operation_xyz
  'x, y, z' 

loop_
_atom_site_label
_atom_site_fract_x
_atom_site_fract_y
_atom_site_fract_z
_atom_site_type_symbol
C       0.0638      0.5   0.1219     C
C       0.0638      0.5   0.8781     C
H       0.1056      0.5   0.2053     H
H       0.1056      0.5   0.7947     H
C       0.1283      0.5      0.0     C
C       0.2657      0.5      0.0     C
O        0.317      0.5   0.1151     O
O        0.317      0.5   0.8849     O
C        0.382     0.45   0.4175     C
C        0.382     0.45   0.5825     C
C        0.382     0.55   0.4175     C
C        0.382     0.55   0.5825     C
C         0.45    0.382   0.4175     C
C         0.45    0.382   0.5825     C
C         0.45    0.618   0.4175     C
C         0.45    0.618   0.5825     C
C          0.5   0.0638   0.1219     C
C          0.5   0.0638   0.8781     C
H          0.5   0.1056   0.2053     H
H          0.5   0.1056   0.7947     H
C          0.5   0.1283      0.0     C
C          0.5   0.2657      0.0     C
O          0.5    0.317   0.1151     O
O          0.5    0.317   0.8849     O
Zn         0.5      0.5  0.15132    Zn
N          0.5      0.5   0.3677     N
N          0.5      0.5   0.6323     N
Zn         0.5      0.5  0.84868    Zn
O          0.5    0.683   0.1151     O
O          0.5    0.683   0.8849     O
C          0.5   0.7343      0.0     C
C          0.5   0.8717      0.0     C
H          0.5   0.8944   0.2053     H
H          0.5   0.8944   0.7947     H
C          0.5   0.9362   0.1219     C
C          0.5   0.9362   0.8781     C
C         0.55    0.382   0.4175     C
C         0.55    0.382   0.5825     C
C         0.55    0.618   0.4175     C
C         0.55    0.618   0.5825     C
C        0.618     0.45   0.4175     C
C        0.618     0.45   0.5825     C
C        0.618     0.55   0.4175     C
C        0.618     0.55   0.5825     C
O        0.683      0.5   0.1151     O
O        0.683      0.5   0.8849     O
C       0.7343      0.5      0.0     C
C       0.8717      0.5      0.0     C
H       0.8944      0.5   0.2053     H
H       0.8944      0.5   0.7947     H
C       0.9362      0.5   0.1219     C
C       0.9362      0.5   0.8781     C
