data_I
_chemical_name_common  '/home/zhangsd/repos/MofS-CGCNN/ML/data/WS24/clean_cifs/WAJHUM'
_cell_length_a 11.25190
_cell_length_b 16.34630
_cell_length_c 16.34630
_cell_angle_alpha 90.00000
_cell_angle_beta  90.00000
_cell_angle_gamma 90.00000
_space_group_name_H-M_alt      'P 1'


loop_
_space_group_symop_operation_xyz
  'x, y, z' 

loop_
_atom_site_label
_atom_site_fract_x
_atom_site_fract_y
_atom_site_fract_z
_atom_site_type_symbol
O       0.0096  0.01569  0.30668     O
C       0.0176   0.2614   0.7722     C
C       0.0205   0.0862   0.5773     C
H       0.0206   0.0481   0.5351     H
C       0.0209   0.2005   0.7034     C
O       0.0226  0.81882  0.50294     O
O       0.0571  0.77127  0.31589     O
C       0.0582   0.5753   0.1511     C
C       0.0596   0.6389   0.2077     C
C       0.0766   0.5024   0.8551     C
Zn     0.08938  0.32716  0.91657    Zn
H       0.0934   0.6312    0.754     H
O       0.0942  0.25047  0.82921     O
C       0.0989   0.0777   0.6419     C
C       0.1013   0.1357    0.704     C
C       0.1076   0.0041   0.3438     C
H       0.1143   0.6385   0.2504     H
O       0.1153   0.4386    0.124     O
O       0.1207  0.44107  0.88954     O
Li      0.1241   0.3256   0.0965    Li
Li      0.1259   0.8256   0.4035    Li
O       0.1293  0.94107  0.61046     O
O       0.1347   0.9386    0.376     O
H       0.1357   0.1385   0.2496     H
C       0.1424   0.5041   0.1562     C
C       0.1487   0.6357    0.796     C
C       0.1511   0.5777   0.8581     C
O       0.1558  0.75047  0.67079     O
H       0.1566   0.1312    0.746     H
Zn     0.16062  0.82716  0.58343    Zn
C       0.1734   0.0024   0.6449     C
C       0.1904   0.1389   0.2923     C
C       0.1918   0.0753   0.3489     C
O       0.1929  0.27127  0.18411     O
O       0.2274  0.31882  0.99706     O
C       0.2291   0.7005   0.7966     C
H       0.2294   0.5481   0.9649     H
C       0.2295   0.5862   0.9227     C
C       0.2324   0.7614   0.7278     C
O       0.2404  0.51569  0.19332     O
O       0.2596  0.80668  0.48431     O
C       0.2676   0.2722   0.2386     C
C       0.2705   0.0773   0.4138     C
H       0.2706   0.0351   0.4519     H
C       0.2709   0.2034   0.2995     C
O       0.2726  0.00294  0.68118     O
O       0.3071  0.81589  0.72873     O
C       0.3082   0.6511   0.9247     C
C       0.3096   0.7077   0.8611     C
C       0.3266   0.3551   0.9976     C
Zn     0.33938  0.41657  0.17284    Zn
H       0.3434    0.254   0.8688     H
O       0.3442  0.32921  0.24953     O
C       0.3489   0.1419   0.4223     C
C       0.3513    0.204   0.3643     C
C       0.3576   0.8438   0.4959     C
H       0.3643   0.7504   0.8615     H
O       0.3653    0.624   0.0614     O
O       0.3707  0.38954  0.05893     O
Li      0.3741   0.5965   0.1744    Li
Li      0.3759   0.9035   0.6744    Li
O       0.3793  0.11046  0.55893     O
O       0.3847    0.876   0.5614     O
H       0.3857   0.7496   0.3615     H
C       0.3924   0.6562   0.9959     C
C       0.3987    0.296   0.8643     C
C       0.4011   0.3581   0.9223     C
O       0.4058  0.17079  0.74953     O
H       0.4066    0.246   0.3688     H
Zn     0.41062  0.08343  0.67284    Zn
C       0.4234   0.1449   0.4976     C
C       0.4404   0.7923   0.3611     C
C       0.4418   0.8489   0.4247     C
O       0.4429  0.68411  0.22873     O
O       0.4774  0.49706  0.18118     O
C       0.4791   0.2966   0.7995     C
H       0.4794   0.4649   0.9519     H
C       0.4795   0.4227   0.9138     C
C       0.4824   0.2278   0.7386     C
O       0.4904  0.69332  0.98431     O
O       0.5096  0.98431  0.69332     O
C       0.5176   0.7386   0.2278     C
C       0.5205   0.9138   0.4227     C
H       0.5206   0.9519   0.4649     H
C       0.5209   0.7995   0.2966     C
O       0.5226  0.18118  0.49706     O
O       0.5571  0.22873  0.68411     O
C       0.5582   0.4247   0.8489     C
C       0.5596   0.3611   0.7923     C
C       0.5766   0.4976   0.1449     C
Zn     0.58938  0.67284  0.08343    Zn
H       0.5934   0.3688    0.246     H
O       0.5942  0.74953  0.17079     O
C       0.5989   0.9223   0.3581     C
C       0.6013   0.8643    0.296     C
C       0.6076   0.9959   0.6562     C
H       0.6143   0.3615   0.7496     H
O       0.6153   0.5614    0.876     O
O       0.6207  0.55893  0.11046     O
Li      0.6241   0.6744   0.9035    Li
Li      0.6259   0.1744   0.5965    Li
O       0.6293  0.05893  0.38954     O
O       0.6347   0.0614    0.624     O
H       0.6357   0.8615   0.7504     H
C       0.6424   0.4959   0.8438     C
C       0.6487   0.3643    0.204     C
C       0.6511   0.4223   0.1419     C
O       0.6558  0.24953  0.32921     O
H       0.6566   0.8688    0.254     H
Zn     0.66062  0.17284  0.41657    Zn
C       0.6734   0.9976   0.3551     C
C       0.6904   0.8611   0.7077     C
C       0.6918   0.9247   0.6511     C
O       0.6929  0.72873  0.81589     O
O       0.7274  0.68118  0.00294     O
C       0.7291   0.2995   0.2034     C
H       0.7294   0.4519   0.0351     H
C       0.7295   0.4138   0.0773     C
C       0.7324   0.2386   0.2722     C
O       0.7404  0.48431  0.80668     O
O       0.7596  0.19332  0.51569     O
C       0.7676   0.7278   0.7614     C
C       0.7705   0.9227   0.5862     C
H       0.7706   0.9649   0.5481     H
C       0.7709   0.7966   0.7005     C
O       0.7726  0.99706  0.31882     O
O       0.8071  0.18411  0.27127     O
C       0.8082   0.3489   0.0753     C
C       0.8096   0.2923   0.1389     C
C       0.8266   0.6449   0.0024     C
Zn     0.83938  0.58343  0.82716    Zn
H       0.8434    0.746   0.1312     H
O       0.8442  0.67079  0.75047     O
C       0.8489   0.8581   0.5777     C
C       0.8513    0.796   0.6357     C
C       0.8576   0.1562   0.5041     C
H       0.8643   0.2496   0.1385     H
O       0.8653    0.376   0.9386     O
O       0.8707  0.61046  0.94107     O
Li      0.8741   0.4035   0.8256    Li
Li      0.8759   0.0965   0.3256    Li
O       0.8793  0.88954  0.44107     O
O       0.8847    0.124   0.4386     O
H       0.8857   0.2504   0.6385     H
C       0.8924   0.3438   0.0041     C
C       0.8987    0.704   0.1357     C
C       0.9011   0.6419   0.0777     C
O       0.9058  0.82921  0.25047     O
H       0.9066    0.754   0.6312     H
Zn     0.91062  0.91657  0.32716    Zn
C       0.9234   0.8551   0.5024     C
C       0.9404   0.2077   0.6389     C
C       0.9418   0.1511   0.5753     C
O       0.9429  0.31589  0.77127     O
O       0.9774  0.50294  0.81882     O
C       0.9791   0.7034   0.2005     C
H       0.9794   0.5351   0.0481     H
C       0.9795   0.5773   0.0862     C
C       0.9824   0.7722   0.2614     C
O       0.9904  0.30668  0.01569     O
