data_I
_chemical_name_common  '/home/zhangsd/repos/MofS-CGCNN/ML/data/WS24/clean_cifs/WASNOU'
_cell_length_a 10.70200
_cell_length_b 11.18600
_cell_length_c 22.58400
_cell_angle_alpha 93.80000
_cell_angle_beta  90.13000
_cell_angle_gamma 115.57000
_space_group_name_H-M_alt      'P 1'


loop_
_space_group_symop_operation_xyz
  'x, y, z' 

loop_
_atom_site_label
_atom_site_fract_x
_atom_site_fract_y
_atom_site_fract_z
_atom_site_type_symbol
Cu         0.0      0.0      0.0    Cu
N       0.0041   0.4236  0.75057     N
C       0.0048   0.9301  0.87269     C
H         0.01   0.0682   0.2692     H
H       0.0175   0.4996   0.8342     H
C       0.0229   0.1243  0.23663     C
O       0.0266   0.8356  0.98806     O
N       0.0266   0.9993  0.08653     N
C       0.0308   0.4522  0.44711     C
C       0.0311   0.3923   0.0066     C
N       0.0338   0.0545  0.18131     N
C       0.0388   0.5605  0.19593     C
H       0.0483   0.8763   0.8804     H
H       0.0501    0.418   0.4115     H
H       0.0569   0.8565   0.7662     H
C        0.059   0.4874  0.55311     C
C       0.0719   0.2789  0.00829     C
H        0.075   0.3509   0.3047     H
C       0.0828   0.6052  0.96636     C
C       0.0904   0.9365   0.1161     C
C       0.0916   0.4422  0.49943     C
C       0.0964   0.9699   0.1744     C
C       0.1105    0.673  0.27909     C
C       0.1109   0.4668  0.61174     C
H       0.1126   0.7059   0.3182     H
C       0.1139   0.4981  0.97308     C
O       0.1173   0.3615  0.61809     O
H       0.1243   0.8795   0.0984     H
O       0.1262   0.7179  0.87869     O
H       0.1328   0.2656   0.3378     H
H        0.135   0.9416   0.2043     H
O       0.1393   0.5598  0.65255     O
H        0.147   0.2373   0.7806     H
C       0.1512   0.3261   0.3066     C
C       0.1553    0.255  0.24878     C
H       0.1655   0.3123   0.2169     H
N       0.1722   0.6407  0.19035     N
C       0.1765   0.7087   0.9261     C
O       0.1867   0.2953  0.46377     O
H       0.1879   0.6166   0.1028     H
H       0.1912   0.4965    0.955     H
O       0.1955   0.3039  0.00514     O
Cu     0.20054  0.51049  0.72579    Cu
C       0.2055   0.3959  0.49502     C
C       0.2152   0.3078   0.8032     C
C       0.2213   0.7141   0.2429     C
H       0.2353   0.2356   0.2493     H
C       0.2518   0.6522  0.13687     C
N       0.2577   0.4379  0.79383     N
H       0.2717   0.4879   0.3609     H
H       0.2746   0.2166   0.8651     H
C       0.2819    0.448   0.3228     C
C       0.2851   0.2954   0.8497     C
H       0.2866   0.4866   0.1384     H
H       0.2967   0.5119   0.2934     H
O       0.3002    0.772  0.94255     O
H       0.3089   0.7456    0.132     H
H       0.3109   0.7784   0.2522     H
O       0.3173   0.4775  0.52138     O
H       0.3213   0.3203    0.602     H
H       0.3319   0.8726   0.4294     H
C       0.3435   0.5814  0.13749     C
C       0.3552   0.5034  0.83503     C
H       0.3605   0.1373   0.6375     H
H       0.3609    0.686   0.4811     H
H       0.3637   0.2848   0.3889     H
H       0.3711   0.5798   0.0478     H
N       0.3749   0.4212  0.87001     N
N       0.3908   0.5691  0.69319     N
C       0.3909   0.2964   0.5898     C
H       0.3929   0.9395    0.541     H
H       0.4031   0.6114    0.173     H
N       0.4038   0.4197  0.32631     N
H       0.4042   0.5955   0.8392     H
H       0.4099   0.7069   0.6332     H
C       0.4117   0.1949   0.6096     C
H       0.4242   0.4407   0.9571     H
C       0.4246   0.3363  0.36149     C
C       0.4298   0.9105    0.421     C
C       0.4319   0.6078  0.08302     C
C       0.4348   0.7063   0.4559     C
H       0.4409   0.9459   0.3822     H
C         0.45   0.6584  0.65063     C
H       0.4694   0.4437   0.0778     H
H       0.4705    0.466   0.7342     H
C       0.4746    0.461  0.92063     C
N       0.4773   0.8062  0.41952     N
H       0.4785   0.0921   0.4651     H
C       0.4824   0.5266  0.70596     C
N        0.488   0.3587  0.54907     N
H       0.4883   0.7028   0.0828     H
C       0.4906   0.9772   0.5324     C
Cu         0.5      0.5      0.5    Cu
C       0.5094   0.0228   0.4676     C
H       0.5117   0.2972   0.9172     H
N        0.512   0.6413  0.45093     N
C       0.5176   0.4734  0.29404     C
H       0.5215   0.9079   0.5349     H
N       0.5227   0.1938  0.58048     N
C       0.5254    0.539  0.07937     C
H       0.5295    0.534   0.2658     H
H       0.5306   0.5563   0.9222     H
C         0.55   0.3416  0.34937     C
H       0.5591   0.0541   0.6178     H
C       0.5652   0.2937   0.5441     C
C       0.5681   0.3922  0.91698     C
C       0.5702   0.0895    0.579     C
C       0.5754   0.6637  0.63851     C
H       0.5758   0.5593   0.0429     H
C       0.5883   0.8051   0.3904     C
H       0.5901   0.2931   0.3668     H
H       0.5958   0.4045   0.1608     H
N       0.5962   0.5803  0.67369     N
H       0.5969   0.3886    0.827     H
H       0.6071   0.0605    0.459     H
C       0.6091   0.7036   0.4102     C
N       0.6092   0.4309  0.30681     N
N       0.6251   0.5788  0.12999     N
H       0.6289   0.4202   0.9522     H
H       0.6363   0.7152   0.6111     H
H       0.6391    0.314   0.5189     H
H       0.6395   0.8627   0.3625     H
C       0.6448   0.4966  0.16497     C
C       0.6565   0.4186  0.86251     C
H       0.6681   0.1274   0.5706     H
H       0.6787   0.6797    0.398     H
O       0.6827   0.5225  0.47862     O
H       0.6891   0.2216   0.7478     H
H       0.6911   0.2544    0.868     H
O       0.6998    0.228  0.05745     O
H       0.7033   0.4881   0.7066     H
H       0.7134   0.5134   0.8616     H
C       0.7149   0.7046   0.1503     C
C       0.7181    0.552   0.6772     C
H       0.7254   0.7834   0.1349     H
H       0.7283   0.5121   0.6391     H
N       0.7423   0.5621  0.20617     N
C       0.7482   0.3478  0.86313     C
H       0.7647   0.7644   0.7507     H
C       0.7787   0.2859   0.7571     C
C       0.7848   0.6922   0.1968     C
C       0.7945   0.6041  0.50498     C
Cu     0.79946  0.48951  0.27421    Cu
O       0.8045   0.6961  0.99486     O
H       0.8088   0.5035    0.045     H
H       0.8121   0.3834   0.8972     H
O       0.8133   0.7047  0.53623     O
C       0.8235   0.2913   0.0739     C
N       0.8278   0.3593  0.80965     N
H       0.8345   0.6877   0.7831     H
C       0.8447    0.745  0.75122     C
C       0.8488   0.6739   0.6934     C
H        0.853   0.7627   0.2194     H
O       0.8607   0.4402  0.34745     O
H        0.865   0.0584   0.7957     H
H       0.8672   0.7344   0.6622     H
O       0.8738   0.2821  0.12131     O
H       0.8757   0.1205   0.9016     H
O       0.8827   0.6385  0.38191     O
C       0.8861   0.5019  0.02692     C
H       0.8874   0.2941   0.6818     H
C       0.8891   0.5332  0.38826     C
C       0.8895    0.327  0.72091     C
C       0.9036   0.0301   0.8256     C
C       0.9084   0.5578  0.50057     C
C       0.9096   0.0635   0.8839     C
C       0.9172   0.3948  0.03364     C
H        0.925   0.6491   0.6953     H
C       0.9281   0.7211  0.99171     C
C        0.941   0.5126  0.44689     C
H       0.9431   0.1435   0.2338     H
H       0.9499    0.582   0.5885     H
H       0.9517   0.1237   0.1196     H
C       0.9612   0.4395  0.80407     C
N       0.9662   0.9455  0.81869     N
C       0.9689   0.6077   0.9934     C
C       0.9692   0.5478  0.55289     C
N       0.9734   0.0007  0.91347     N
O       0.9734   0.1644  0.01194     O
C       0.9771   0.8757  0.76337     C
H       0.9825   0.5004   0.1658     H
H         0.99   0.9318   0.7308     H
C       0.9952   0.0699  0.12731     C
N       0.9959   0.5764  0.24943     N
