data_I
_chemical_name_common  '/home/zhangsd/repos/MofS-CGCNN/ML/data/WS24/clean_cifs/WEFXEM'
_cell_length_a  7.45300
_cell_length_b 15.00320
_cell_length_c 17.61200
_cell_angle_alpha 90.00000
_cell_angle_beta  91.29220
_cell_angle_gamma 90.00000
_space_group_name_H-M_alt      'P 1'


loop_
_space_group_symop_operation_xyz
  'x, y, z' 

loop_
_atom_site_label
_atom_site_fract_x
_atom_site_fract_y
_atom_site_fract_z
_atom_site_type_symbol
Ni         0.0      0.0      0.0    Ni
Ni         0.0      0.5      0.5    Ni
N      0.00208  0.70721  0.45972     N
N      0.00208  0.79279  0.95972     N
H      0.03538  0.67158  0.90609     H
H      0.03538  0.82842  0.40609     H
O      0.05743  0.00687  0.20081     O
O      0.05743  0.49313  0.70081     O
C       0.0655  0.73304  0.90882     C
C       0.0655  0.76696  0.40882     C
N        0.077   0.6266  0.44487     N
N        0.077   0.8734  0.94487     N
H      0.08013  0.21962  0.00121     H
H      0.08013  0.28038  0.50121     H
H      0.10563  0.63346  0.78209     H
H      0.10563  0.86654  0.28209     H
O      0.17871  0.54441  0.57816     O
O      0.17871  0.95559  0.07816     O
C      0.17963  0.72326  0.36251     C
C      0.17963  0.77674  0.86251     C
C      0.18674  0.63652  0.38479     C
C      0.18674  0.86348  0.88479     C
C      0.21285  0.66058  0.76528     C
C      0.21285  0.83942  0.26528     C
H      0.22437  0.06054   0.8288     H
H      0.22437  0.43946   0.3288     H
S      0.22461  0.52496  0.66104     S
S      0.22461  0.97504  0.16104     S
N      0.23834  0.05059  0.94582     N
N      0.23834  0.44941  0.44582     N
H      0.25616  0.59087  0.36233     H
H      0.25616  0.90913  0.86233     H
C      0.27669  0.73769   0.8003     C
C      0.27669  0.76231   0.3003     C
C      0.28676  0.07501  0.87479     C
C      0.28676  0.42499  0.37479     C
C      0.30589  0.62315  0.70564     C
C      0.30589  0.87685  0.20564     C
H      0.36108   0.0774  0.04971     H
H      0.36108   0.4226  0.54971     H
N      0.36183  0.08427  0.99609     N
N      0.36183  0.41573  0.49609     N
H      0.36617  0.23294  0.30075     H
H      0.36617  0.26706  0.80075     H
O      0.36794  0.04701  0.16596     O
O      0.36794  0.45299  0.66596     O
H      0.41175  0.65979  0.52306     H
H      0.41175  0.84021  0.02306     H
C      0.43357  0.72263   0.2757     C
C      0.43357  0.77737   0.7757     C
C      0.44017  0.12378  0.88117     C
C      0.44017  0.37622  0.38117     C
C      0.46277  0.66283  0.68104     C
C      0.46277  0.83717  0.18104     C
C      0.47339  0.23994  0.78394     C
C      0.47339  0.26006  0.28394     C
H      0.47719  0.66993  0.29964     H
H      0.47719  0.83007  0.79964     H
C      0.48656  0.12951  0.95614     C
C      0.48656  0.37049  0.45614     C
C      0.51344  0.62951  0.54386     C
C      0.51344  0.87049  0.04386     C
H      0.52281  0.16993  0.20036     H
H      0.52281  0.33007  0.70036     H
C      0.52661  0.73994  0.71606     C
C      0.52661  0.76006  0.21606     C
C      0.53723  0.16283  0.81896     C
C      0.53723  0.33717  0.31896     C
C      0.55983  0.62378  0.61883     C
C      0.55983  0.87622  0.11883     C
C      0.56643  0.22263   0.2243     C
C      0.56643  0.27737   0.7243     C
H      0.58825  0.15979  0.97694     H
H      0.58825  0.34021  0.47694     H
O      0.63206  0.54701  0.33404     O
O      0.63206  0.95299  0.83404     O
H      0.63383  0.73294  0.19925     H
H      0.63383  0.76706  0.69925     H
N      0.63817  0.58427  0.50391     N
N      0.63817  0.91573  0.00391     N
H      0.63892   0.5774  0.45029     H
H      0.63892   0.9226  0.95029     H
C      0.69411  0.12315  0.79436     C
C      0.69411  0.37685  0.29436     C
C      0.71324  0.57501  0.62521     C
C      0.71324  0.92499  0.12521     C
C      0.72331  0.23769   0.6997     C
C      0.72331  0.26231   0.1997     C
H      0.74384  0.09087  0.13767     H
H      0.74384  0.40913  0.63767     H
N      0.76166  0.55059  0.55418     N
N      0.76166  0.94941  0.05418     N
S      0.77539  0.02496  0.83896     S
S      0.77539  0.47504  0.33896     S
H      0.77563  0.56054   0.6712     H
H      0.77563  0.93946   0.1712     H
C      0.78715  0.16058  0.73472     C
C      0.78715  0.33942  0.23472     C
C      0.81326  0.13652  0.11521     C
C      0.81326  0.36348  0.61521     C
C      0.82037  0.22326  0.13749     C
C      0.82037  0.27674  0.63749     C
O      0.82129  0.04441  0.92184     O
O      0.82129  0.45559  0.42184     O
H      0.89437  0.13346  0.71791     H
H      0.89437  0.36654  0.21791     H
H      0.91987  0.71962  0.49879     H
H      0.91987  0.78038  0.99879     H
N        0.923   0.1266  0.05513     N
N        0.923   0.3734  0.55513     N
C       0.9345  0.23304  0.59118     C
C       0.9345  0.26696  0.09118     C
O      0.94257  0.50687  0.29919     O
O      0.94257  0.99313  0.79919     O
H      0.96462  0.17158  0.59391     H
H      0.96462  0.32842  0.09391     H
N      0.99792  0.20721  0.04028     N
N      0.99792  0.29279  0.54028     N
