data_I
_chemical_name_common  '/home/zhangsd/repos/MofS-CGCNN/ML/data/WS24/clean_cifs/WEHPOP'
_cell_length_a 12.41000
_cell_length_b 12.41000
_cell_length_c 20.02000
_cell_angle_alpha 76.47770
_cell_angle_beta  76.47770
_cell_angle_gamma 65.89600
_space_group_name_H-M_alt      'P 1'


loop_
_space_group_symop_operation_xyz
  'x, y, z' 

loop_
_atom_site_label
_atom_site_fract_x
_atom_site_fract_y
_atom_site_fract_z
_atom_site_type_symbol
Ni         0.0      0.5      0.0    Ni
H       0.0053   0.6019    0.283     H
N       0.0057   0.6007    0.122     N
C       0.0126   0.3706    0.762     C
O       0.0161   0.3267   0.0517     O
C       0.0209   0.3175   0.1641     C
H       0.0396    0.276   0.2756     H
C       0.0519   0.5659   0.1834     C
H       0.0525   0.6189   0.8354     H
O       0.0709   0.5263   0.0741     O
C       0.0766   0.2566   0.2316     C
C       0.0781   0.2989   0.8991     C
N       0.0782   0.2782   0.1092     N
H       0.0864   0.3134   0.6463     H
H       0.0892   0.2762   0.9454     H
C       0.1183   0.2485   0.7811     C
H       0.1238   0.5018   0.1881     H
C       0.1456   0.2374    0.652     C
H       0.1557   0.2293   0.3516     H
C       0.1585   0.2193   0.8432     C
C       0.1697   0.1887   0.7177     C
O       0.1704   0.4288   0.9543     O
H       0.1785   0.2269   0.5533     H
H       0.1818   0.6236   0.9443     H
C       0.1887   0.1697   0.2177     C
C       0.1888   0.1966   0.0974     C
C       0.1966   0.1888   0.5974     C
C       0.2193   0.1585   0.3432     C
H       0.2269   0.1785   0.0533     H
H       0.2293   0.1557   0.8516     H
C       0.2374   0.1456    0.152     C
C       0.2485   0.1183   0.2811     C
C       0.2508   0.5616   0.9573     C
C       0.2566   0.0766   0.7316     C
N       0.2684   0.4536    0.966     N
H        0.276   0.0396   0.7756     H
H       0.2762   0.0892   0.4454     H
N       0.2782   0.0782   0.6092     N
H       0.2908   0.3396   0.5075     H
C       0.2989   0.0781   0.3991     C
H       0.3134   0.0864   0.1463     H
H        0.315   0.5226   0.5065     H
C       0.3175   0.0209   0.6641     C
O       0.3267   0.0161   0.5517     O
H       0.3396   0.2908   0.0075     H
H       0.3449   0.6543   0.9652     H
H       0.3457   0.6551   0.5348     H
C       0.3481   0.3641   0.9922     C
C       0.3493   0.5763     0.97     C
C       0.3641   0.3481   0.4922     C
C       0.3706   0.0126    0.262     C
H       0.3764   0.8182   0.5557     H
C       0.3804   0.4534   0.4972     C
H       0.3811   0.9475   0.6646     H
H       0.3981   0.9947    0.217     H
N       0.3993   0.9943    0.378     N
C       0.4237   0.6507     0.53     C
O       0.4288   0.1704   0.4543     O
C       0.4341   0.9481   0.3166     C
C       0.4384   0.7492   0.5427     C
C       0.4499   0.4883   0.9884     C
C       0.4534   0.3804   0.9972     C
N       0.4536   0.2684    0.466     N
O       0.4737   0.9291   0.4259     O
H       0.4774    0.685   0.9935     H
C       0.4883   0.4499   0.4884     C
H       0.4982   0.8762   0.3119     H
Ni         0.5      0.0      0.5    Ni
H       0.5018   0.1238   0.6881     H
C       0.5117   0.5501   0.5116     C
H       0.5226    0.315   0.0065     H
O       0.5263   0.0709   0.5741     O
N       0.5464   0.7316    0.534     N
C       0.5466   0.6196   0.0028     C
C       0.5501   0.5117   0.0116     C
C       0.5616   0.2508   0.4573     C
C       0.5659   0.0519   0.6834     C
O       0.5712   0.8296   0.5457     O
C       0.5763   0.3493     0.47     C
N       0.6007   0.0057    0.622     N
H       0.6019   0.0053    0.783     H
H       0.6189   0.0525   0.3354     H
C       0.6196   0.5466   0.5028     C
H       0.6236   0.1818   0.4443     H
C       0.6294   0.9874    0.738     C
C       0.6359   0.6519   0.5078     C
C       0.6507   0.4237     0.03     C
C       0.6519   0.6359   0.0078     C
H       0.6543   0.3449   0.4652     H
H       0.6551   0.3457   0.0348     H
H       0.6604   0.7092   0.9925     H
O       0.6733   0.9839   0.4483     O
C       0.6825   0.9791   0.3359     C
H        0.685   0.4774   0.4935     H
H       0.6866   0.9136   0.8537     H
C       0.7011   0.9219   0.6009     C
H       0.7092   0.6604   0.4925     H
N       0.7218   0.9218   0.3908     N
H       0.7238   0.9108   0.5546     H
H        0.724   0.9604   0.2244     H
N       0.7316   0.5464    0.034     N
C       0.7434   0.9234   0.2684     C
C       0.7492   0.4384   0.0427     C
C       0.7515   0.8817   0.7189     C
C       0.7626   0.8544    0.848     C
H       0.7707   0.8443   0.1484     H
H       0.7731   0.8215   0.9467     H
C       0.7807   0.8415   0.6568     C
C       0.8034   0.8112   0.4026     C
C       0.8112   0.8034   0.9026     C
C       0.8113   0.8303   0.7823     C
H       0.8182   0.3764   0.0557     H
H       0.8215   0.7731   0.4467     H
O       0.8296   0.5712   0.0457     O
C       0.8303   0.8113   0.2823     C
C       0.8415   0.7807   0.1568     C
H       0.8443   0.7707   0.6484     H
C       0.8544   0.7626    0.348     C
H       0.8762   0.4982   0.8119     H
C       0.8817   0.7515   0.2189     C
H       0.9108   0.7238   0.0546     H
H       0.9136   0.6866   0.3537     H
N       0.9218   0.7218   0.8908     N
C       0.9219   0.7011   0.1009     C
C       0.9234   0.7434   0.7684     C
O       0.9291   0.4737   0.9259     O
H       0.9475   0.3811   0.1646     H
C       0.9481   0.4341   0.8166     C
H       0.9604    0.724   0.7244     H
C       0.9791   0.6825   0.8359     C
O       0.9839   0.6733   0.9483     O
C       0.9874   0.6294    0.238     C
N       0.9943   0.3993    0.878     N
H       0.9947   0.3981    0.717     H
