data_I
_chemical_name_common  '/home/zhangsd/repos/MofS-CGCNN/ML/data/WS24/clean_cifs/WEHQUW'
_cell_length_a 10.72760
_cell_length_b 12.29690
_cell_length_c 16.82500
_cell_angle_alpha 111.22800
_cell_angle_beta  105.75400
_cell_angle_gamma 93.77900
_space_group_name_H-M_alt      'P 1'


loop_
_space_group_symop_operation_xyz
  'x, y, z' 

loop_
_atom_site_label
_atom_site_fract_x
_atom_site_fract_y
_atom_site_fract_z
_atom_site_type_symbol
Ag     0.00088   0.4393  0.38068    Ag
N       0.0108   0.7551   0.7312     N
N       0.0129   0.5135    0.271     N
C       0.0503   0.8349   0.7949     C
C       0.0504    0.541   0.2239     C
H       0.0963   0.8519   0.9603     H
H       0.0986    0.747    0.219     H
C       0.1026   0.5732   0.1627     C
C       0.1044    0.938   0.8789     C
H       0.1134   0.4101   0.0878     H
C       0.1198   0.6896   0.1732     C
H        0.122   0.0578   0.8253     H
C        0.122   0.9257   0.9604     C
C       0.1304   0.4892   0.0959     C
C       0.1365   0.0485   0.8794     C
C       0.1688   0.7206   0.1153     C
C       0.1763   0.0205   0.0399     C
H         0.18   0.7992   0.1213     H
C       0.1846   0.5192   0.0384     C
H       0.1892   0.0111   0.0938     H
C       0.1894   0.1442   0.9586     C
N       0.1914   0.5533   0.5852     N
N       0.1955   0.5059   0.4956     N
C       0.2012    0.635   0.0482     C
H       0.2088   0.4617   0.9944     H
H       0.2106   0.2187   0.9585     H
C       0.2122    0.131   0.0407     C
H       0.2514   0.3747   0.3432     H
H       0.2519   0.5859   0.7641     H
C       0.2555   0.6723   0.9896     C
C       0.2631   0.2329   0.1231     C
C       0.2963   0.6956   0.9377     C
C       0.3001   0.6278   0.6333     C
C       0.3043   0.6604   0.7864     C
C       0.3061   0.3187    0.193     C
C       0.3063   0.5542   0.4987     C
C       0.3128   0.4346   0.3465     C
C       0.3416   0.7331   0.8785     C
C       0.3458   0.6999   0.7288     C
C       0.3568   0.4221    0.273     C
C       0.3623   0.5382   0.4249     C
O       0.3801   0.6301   0.5834     O
C       0.4144   0.8463   0.9079     C
C       0.4201   0.8096   0.7593     C
H       0.4381   0.8963   0.9684     H
H       0.4408   0.3257    0.636     H
C       0.4473   0.5147   0.2796     C
H       0.4495   0.8337   0.7201     H
C       0.4521   0.8861   0.8499     C
C       0.4536   0.6238   0.4321     C
H        0.474   0.5095   0.2304     H
H       0.4884   0.6901   0.4859     H
C       0.4969    0.614   0.3591     C
H       0.4984   0.9629   0.8705     H
H       0.5016   0.0371   0.1295     H
C       0.5031    0.386   0.6409     C
H       0.5116   0.3099   0.5141     H
H        0.526   0.4905   0.7696     H
C       0.5464   0.3762   0.5679     C
C       0.5479   0.1139   0.1501     C
H       0.5505   0.1663   0.2799     H
C       0.5527   0.4853   0.7204     C
H       0.5592   0.6743    0.364     H
H       0.5619   0.1037   0.0316     H
C       0.5799   0.1904   0.2407     C
C       0.5856   0.1537   0.0921     C
O       0.6199   0.3699   0.4166     O
C       0.6377   0.4618   0.5751     C
C       0.6432   0.5779    0.727     C
C       0.6542   0.3001   0.2712     C
C       0.6584   0.2669   0.1215     C
C       0.6872   0.5654   0.6535     C
C       0.6937   0.4458   0.5013     C
C       0.6939   0.6813    0.807     C
C       0.6957   0.3396   0.2136     C
C       0.6999   0.3722   0.3667     C
C       0.7037   0.3044   0.0623     C
C       0.7369   0.7671   0.8769     C
C       0.7445   0.3277   0.0104     C
H       0.7481   0.4141   0.2359     H
H       0.7486   0.6253   0.6568     H
C       0.7878    0.869   0.9593     C
H       0.7894   0.7813   0.0415     H
H       0.7912   0.5383   0.0056     H
C       0.7988    0.365   0.9518     C
N       0.8045   0.4941   0.5044     N
N       0.8086   0.4467   0.4148     N
C       0.8106   0.8558   0.0414     C
H       0.8108   0.9889   0.9062     H
C       0.8154   0.4808   0.9616     C
H         0.82   0.2008   0.8787     H
C       0.8237   0.9795   0.9601     C
C       0.8312   0.2794   0.8847     C
C       0.8635   0.9515   0.1206     C
C       0.8696   0.5108   0.9041     C
C        0.878   0.0743   0.0396     C
H        0.878   0.9422   0.1747     H
C       0.8802   0.3104   0.8268     C
H       0.8866   0.5899   0.9122     H
C       0.8956    0.062   0.1211     C
C       0.8974   0.4268   0.8373     C
H       0.9014    0.253    0.781     H
H       0.9037   0.1481   0.0397     H
C       0.9496    0.459   0.7761     C
C       0.9497   0.1651   0.2051     C
N       0.9871   0.4865    0.729     N
N       0.9892   0.2449   0.2688     N
Ag     0.99912   0.5607  0.61932    Ag
