data_I
_chemical_name_common  '/home/zhangsd/repos/MofS-CGCNN/ML/data/WS24/clean_cifs/WEHQEG'
_cell_length_a 15.02160
_cell_length_b 15.02160
_cell_length_c 21.00140
_cell_angle_alpha 73.05080
_cell_angle_beta  73.05110
_cell_angle_gamma 100.65300
_space_group_name_H-M_alt      'P 1'


loop_
_space_group_symop_operation_xyz
  'x, y, z' 

loop_
_atom_site_label
_atom_site_fract_x
_atom_site_fract_y
_atom_site_fract_z
_atom_site_type_symbol
H       0.0027   0.9009   0.6706     H
C       0.0032   0.2604   0.3144     C
N      0.00382  0.48402  0.46416     N
C       0.0077   0.6247   0.2828     C
C       0.0164   0.7722    0.816     C
F        0.021   0.2594   0.5348     F
N       0.0217   0.3277   0.3292     N
C       0.0222   0.7664    0.316     C
H       0.0248   0.2514   0.1882     H
C       0.0305   0.8785    0.704     C
C       0.0382   0.5842    0.706     C
H       0.0484   0.8858   0.3412     H
C        0.052   0.7258   0.2682     C
F       0.0537   0.0911   0.5714     F
C        0.055   0.5762   0.6412     C
H       0.0615   0.3671   0.8534     H
F       0.0639   0.1687    0.448     F
C        0.067   0.8606   0.3054     C
C       0.0671   0.3611   0.8096     C
C       0.0824   0.3382    0.684     C
O       0.0834   0.5834      0.5     O
C       0.0838    0.553   0.4458     C
H       0.0875   0.3273   0.6418     H
C        0.094   0.0936   0.7752     C
Sb     0.10719  0.20811   0.5058    Sb
C       0.1106    0.817   0.8054     C
H       0.1185   0.5933    0.609     H
C       0.1192   0.6188   0.7248     C
C       0.1267   0.9207   0.6904     C
C       0.1285   0.7805    0.204     C
H       0.1358   0.7984   0.8412     H
C       0.1406   0.9168     0.24     C
H       0.1509   0.7527   0.1706     H
C       0.1568   0.3806     0.76     C
H       0.1586    0.485   0.3458     H
C       0.1639   0.5977   0.3774     C
F       0.1643   0.3259   0.4366     F
H       0.1649   0.9705   0.6466     H
C        0.166   0.3724   0.6946     C
C       0.1668   0.8906     0.74     C
F       0.1683   0.2445    0.558     F
C       0.1707   0.8767   0.1904     C
C       0.1775   0.1313   0.7588     C
C       0.1843   0.0177   0.2282     C
C       0.1863   0.6401   0.7412     C
C       0.1908   0.5504   0.3326     C
H       0.1932   0.6272   0.8648     H
H       0.2023   0.7275    0.391     H
H       0.2088   0.1874   0.3102     H
F       0.2152    0.175    0.468     F
C       0.2174   0.6962   0.3588     C
H       0.2205   0.9149   0.1466     H
C       0.2229   0.0999    0.218     C
H        0.227   0.3896   0.6588     H
C       0.2459   0.4125   0.7718     C
C       0.2501   0.2301   0.2644     C
C       0.2553   0.6561   0.8296     C
C       0.2665   0.1977    0.207     C
C        0.267   0.5998   0.2662     C
C       0.2677   0.9343   0.7282     C
C       0.2686   0.6702   0.7608     C
H       0.2742   0.1328   0.8386     H
C       0.2794    0.181   0.7392     C
H       0.2838   0.5688    0.234     H
H       0.2857   0.3459   0.2916     H
C       0.2902   0.7442    0.294     C
C       0.2951   0.3253    0.253     C
H        0.308    0.242   0.6352     H
C       0.3148    0.171   0.7914     C
C       0.3169   0.6955   0.2492     C
C       0.3179   0.4409    0.782     C
C        0.325   0.2654   0.1386     C
H        0.328   0.6758   0.8956     H
H       0.3347   0.2459   0.0996     H
C       0.3349   0.2357   0.6704     C
C       0.3364   0.6854   0.8482     C
F       0.3411   0.8037   0.0714     F
C       0.3436    0.844   0.2752     C
H       0.3455   0.4343   0.9004     H
C       0.3499   0.9729    0.718     C
C       0.3519   0.3877   0.1874     C
C       0.3562   0.7124   0.7086     C
H       0.3628   0.7214   0.6614     H
C        0.369   0.3614   0.1278     C
H       0.3699   0.7277   0.2064     H
H       0.3812   0.4514   0.1814     H
C       0.3813   0.9275   0.2588     C
H       0.3828   0.0242   0.3386     H
C        0.404   0.4636   0.8614     C
C       0.4047   0.4735    0.793     C
C       0.4149   0.2189   0.7754     C
O        0.415    0.415     -0.0     O
F       0.4187   0.8139    0.948     F
C        0.421   0.0648   0.2914     C
F        0.425   0.9652    0.968     F
C        0.429   0.7288   0.7948     C
C        0.431   0.0294   0.2392     C
C       0.4333   0.4311    0.057     C
C       0.4346   0.2836   0.6518     C
H       0.4374   0.9588   0.8102     H
H       0.4396    0.213   0.8118     H
C       0.4403   0.7443   0.7246     C
C       0.4477   0.0165    0.707     C
Sb     0.45811  0.85719   0.0058    Sb
H        0.463   0.1896   0.3118     H
C       0.4689   0.1649   0.2754     C
H       0.4736   0.3214   0.6044     H
C       0.4738   0.2736   0.7052     C
C       0.4801   0.0001   0.7644     C
C       0.4857   0.0849   0.1704     C
C       0.4881   0.4903    0.943     C
C       0.4892   0.4968   0.8722     C
H        0.492    0.058   0.1352     H
C       0.4945   0.5145   0.7356     C
F       0.4945   0.9183    0.058     F
H       0.4959   0.0847   0.5996     H
H       0.4976    0.519   0.6898     H
H       0.5014   0.7748   0.6882     H
N       0.5049   0.5023   0.0378     N
F       0.5094    0.771   0.0348     F
C       0.5104   0.7532   0.8144     C
C       0.5154    0.075   0.6386     C
N       0.5182    0.592   0.2018     N
C       0.5236   0.2238   0.2052     C
C       0.5336   0.1846   0.1518     C
N       0.5401   0.5427   0.9622     N
C       0.5405   0.6575   0.2172     C
C       0.5676   0.3248   0.1856     C
C       0.5702    0.744   0.2318     C
H       0.5714   0.2236   0.1044     H
H       0.5715   0.6733   0.3294     H
C       0.5748   0.3176   0.6856     C
C       0.5751   0.5393   0.8126     C
C       0.5753   0.0451    0.753     C
F       0.5759   0.9143   0.9366     F
H       0.5773   0.8375   0.1418     H
N       0.5777   0.7717   0.8292     N
C       0.5783   0.5481    0.747     C
C       0.5825   0.7345    0.296     C
C       0.5882   0.8324    0.184     C
H       0.5959   0.0357   0.7916     H
Ag     0.59767  0.55469   0.0977    Ag
N       0.6009   0.4069   0.1708     N
C       0.6111   0.8171   0.3096     C
C       0.6114    0.119   0.6278     C
F       0.6167   0.5119    0.552     F
H       0.6171   0.8115   0.3534     H
C       0.6224    0.916   0.1946     C
C       0.6306   0.9068     0.26     C
H       0.6328   0.5626   0.8186     H
H       0.6375   0.5773   0.7084     H
C       0.6377   0.1019   0.6874     C
H       0.6396    0.977   0.1588     H
F        0.643   0.6832    0.532     F
Ag     0.65239  0.69537   0.9023    Ag
N       0.6569   0.3509   0.6708     N
F       0.6625   0.6251   0.4286     F
C       0.6625   0.9959   0.2718     C
O        0.665    0.165      0.5     O
C       0.6811   0.1833    0.557     C
H       0.6843   0.0955   0.4004     H
C       0.6909   0.0679    0.282     C
H       0.7014   0.1312   0.6814     H
C       0.7136    0.154   0.3614     C
Sb     0.71391  0.61299   0.4942    Sb
N      0.71798  0.69818  0.03584     N
C       0.7235   0.1547    0.293     C
N      0.73402  0.75382  0.96416     N
H        0.735   0.9086   0.8458     H
C       0.7403   0.2381    0.443     C
C       0.7468   0.2392   0.3722     C
N       0.7523   0.2549   0.5378     N
H       0.7544   0.5808   0.1542     H
F       0.7619   0.3667    0.052     F
F       0.7625   0.6009   0.5634     F
C       0.7645   0.2445   0.2356     C
H       0.7678   0.5528    0.266     H
H        0.769   0.2476   0.1898     H
C       0.7734    0.633   0.1674     C
C       0.7796   0.7488   0.0542     C
C       0.7832    0.616   0.2338     C
C       0.7893   0.3251   0.3126     C
C       0.7913   0.7251   0.1226     C
N       0.7927   0.2901   0.4622     N
N       0.7938     0.72   0.7982     N
F       0.7942   0.5558   0.4652     F
C       0.7981   0.3283    0.247     C
C       0.8004   0.9408   0.8326     C
F       0.8025   0.7263    0.442     F
H       0.8028   0.5178    0.766     H
C        0.803   0.8338   0.9458     C
Ag     0.80469  0.34767   0.5977    Ag
F       0.8058   0.5442   0.9652     F
H       0.8126   0.3828   0.3186     H
C       0.8161   0.6947   0.2508     C
H       0.8188   0.0338    0.734     H
C       0.8262    0.805   0.1412     C
H       0.8263   0.6841   0.2936     H
H       0.8273   0.3875   0.2084     H
H       0.8308   0.5044   0.6542     H
O       0.8334   0.8334     -0.0     O
C       0.8342   0.7882    0.206     C
N        0.842   0.2682   0.7018     N
H       0.8433   0.8685    0.109     H
C       0.8477   0.9139   0.8774     C
C       0.8498    0.017   0.7662     C
F       0.8509   0.5125   0.0634     F
Sb     0.86299  0.46391   0.9942    Sb
C        0.866   0.5332   0.7338     C
C       0.8688   0.8692   0.2248     C
C       0.8747   0.7577   0.7828     C
F       0.8751   0.4125   0.9286     F
H       0.8772   0.9432   0.3648     H
C        0.883   0.5234   0.6674     C
C       0.8901   0.9363   0.2412     C
C       0.9061   0.0053   0.3296     C
C       0.9075   0.2905   0.7172     C
C       0.9202   0.0186   0.2608     C
H       0.9233   0.3215   0.8294     H
H       0.9258    0.078   0.3956     H
F       0.9332    0.393    0.032     F
H       0.9341   0.5763   0.7936     H
C       0.9354   0.0864   0.3482     C
C       0.9447   0.5661   0.7508     C
Ag     0.94537  0.40239   0.4023    Ag
C       0.9455   0.0669   0.7492     C
C       0.9462   0.9674   0.8588     C
N      0.94818  0.46798  0.53584     N
C       0.9624   0.1062   0.2086     C
H       0.9691   0.7293   0.3582     H
N         0.97   0.5438   0.2982     N
H       0.9714   0.1128   0.1614     H
C       0.9751   0.5413   0.6226     C
C       0.9758    0.802   0.7682     C
F       0.9763   0.5525    0.942     F
H       0.9775   0.9523    0.891     H
H       0.9777   0.1199   0.7064     H
C       0.9788    0.179   0.2948     C
H       0.9793   0.7191   0.8582     H
C       0.9845   0.3325    0.796     C
C        0.994   0.3202   0.7318     C
C       0.9942   0.0402    0.794     C
C       0.9943   0.1903   0.2246     C
C       0.9988   0.5296   0.5542     C
