data_I
_chemical_name_common  '/home/zhangsd/repos/MofS-CGCNN/ML/data/WS24/clean_cifs/WEHREH'
_cell_length_a 10.20640
_cell_length_b 12.62200
_cell_length_c 17.86500
_cell_angle_alpha 72.55300
_cell_angle_beta  82.61500
_cell_angle_gamma 71.62600
_space_group_name_H-M_alt      'P 1'


loop_
_space_group_symop_operation_xyz
  'x, y, z' 

loop_
_atom_site_label
_atom_site_fract_x
_atom_site_fract_y
_atom_site_fract_z
_atom_site_type_symbol
C       0.0151   0.8799   0.4281     C
C       0.0282   0.7968   0.4999     C
H       0.0325   0.3411   0.4377     H
C       0.0412   0.2848   0.4858     C
C       0.0701   0.1161   0.6268     C
H       0.0806   0.0584   0.6742     H
H        0.083   0.7963   0.5378     H
C       0.1009   0.9552   0.4137     C
H       0.1132   0.3119   0.2102     H
C       0.1233   0.2852    0.541     C
C       0.1405   0.1984   0.6113     C
N       0.1759   0.0069   0.4057     N
C       0.1859   0.3355   0.2193     C
C       0.1881   0.3766   0.5233     C
H       0.1902   0.4504   0.1132     H
H       0.1994   0.1953    0.648     H
H       0.2177   0.2336   0.3297     H
C       0.2323   0.4184   0.1613     C
C       0.2329   0.4561    0.503     C
H       0.2443   0.5726   0.3583     H
C       0.2489   0.2886   0.2904     C
H       0.2835   0.6919   0.9294     H
C       0.2857   0.6008   0.3885     C
C       0.2892   0.5523   0.4683     C
H       0.3189   0.8237   0.8139     H
H       0.3395   0.7207   0.2978     H
C       0.3405   0.4539   0.1744     C
C       0.3418   0.6898   0.3521     C
C        0.348   0.5968   0.5135     C
H         0.35   0.5659   0.5677     H
C       0.3561   0.7235   0.9243     C
H       0.3566   0.1514   0.0968     H
C        0.358   0.3224   0.3042     C
C       0.3772   0.8024   0.8552     C
C       0.3863   0.5395   0.1119     C
H       0.3913   0.2846    0.981     H
Ag     0.39964  0.00812   0.4183    Ag
C       0.4017    0.733   0.3968     C
C       0.4041   0.6884   0.4769     C
C       0.4048   0.4053   0.2459     C
C       0.4163    0.607   0.0573     C
C        0.426   0.2714   0.3791     C
C       0.4293   0.1831   0.0913     C
N        0.439   0.1705  0.42869     N
H       0.4407   0.7928   0.3725     H
C       0.4417    0.691    0.986     C
C       0.4502   0.2624   0.0222     C
C       0.4683   0.7327   0.5243     C
H       0.4784    0.428   0.2548     H
N       0.4809   0.0119   0.2867     N
O       0.4826   0.3363  0.40536     O
C        0.483   0.8493   0.8472     C
N       0.4909   0.8332  0.50794     N
C       0.4946   0.0723   0.2271     C
C       0.5054   0.9277   0.7729     C
N       0.5091   0.1668  0.49206     N
C        0.517   0.1507   0.1528     C
O       0.5174   0.6637  0.59464     O
N       0.5191   0.9881   0.7133     N
H       0.5216    0.572   0.7452     H
C       0.5317   0.2673   0.4757     C
C       0.5498   0.7376   0.9778     C
C       0.5583    0.309    0.014     C
H       0.5593   0.2072   0.6275     H
N        0.561   0.8295  0.57131     N
C       0.5707   0.8169   0.9087     C
C        0.574   0.7286   0.6209     C
C       0.5837    0.393   0.9427     C
C       0.5952   0.5947   0.7541     C
C       0.5959   0.3116   0.5231     C
C       0.5983    0.267   0.6032     C
Ag     0.60036  0.99188   0.5817    Ag
H       0.6087   0.7154    0.019     H
C       0.6137   0.4605   0.8881     C
C       0.6228   0.1976   0.1448     C
C        0.642   0.6776   0.6958     C
H       0.6434   0.8486   0.9032     H
C       0.6439   0.2765   0.0757     C
H         0.65   0.4341   0.4323     H
C        0.652   0.4032   0.4865     C
C       0.6582   0.3102   0.6479     C
C       0.6595   0.5461   0.8256     C
H       0.6605   0.2793   0.7022     H
H       0.6811   0.1763   0.1861     H
C       0.7108   0.4477   0.5317     C
C       0.7143   0.3992   0.6115     C
H       0.7165   0.3081   0.0706     H
C       0.7511   0.7114   0.7096     C
H       0.7557   0.4274   0.6417     H
C       0.7671   0.5439    0.497     C
C       0.7677   0.5816   0.8387     C
H       0.7823   0.7664   0.6703     H
H       0.8006   0.8047    0.352     H
H       0.8098   0.5496   0.8868     H
C       0.8119   0.6234   0.4767     C
C       0.8141   0.6645   0.7807     C
N       0.8241   0.9931   0.5943     N
C       0.8595   0.8016   0.3887     C
C       0.8767   0.7148    0.459     C
H       0.8868   0.6881   0.7898     H
C       0.8991   0.0448   0.5863     C
H        0.917   0.2037   0.4622     H
H       0.9194   0.9416   0.3258     H
C       0.9299   0.8839   0.3732     C
C       0.9588   0.7152   0.5142     C
H       0.9675   0.6589   0.5623     H
C       0.9718   0.2032   0.5001     C
C       0.9849   0.1201   0.5719     C
