data_I
_chemical_name_common  '/home/zhangsd/repos/MofS-CGCNN/ML/data/WS24/clean_cifs/WEHRAD'
_cell_length_a 10.79080
_cell_length_b 12.51440
_cell_length_c 16.81030
_cell_angle_alpha 111.48100
_cell_angle_beta  105.95000
_cell_angle_gamma 93.84900
_space_group_name_H-M_alt      'P 1'


loop_
_space_group_symop_operation_xyz
  'x, y, z' 

loop_
_atom_site_label
_atom_site_fract_x
_atom_site_fract_y
_atom_site_fract_z
_atom_site_type_symbol
C       0.0025   0.7399   0.0058     C
C       0.0091   0.7039   0.8571     C
C       0.0186   0.4361   0.3996     C
C       0.0224   0.5457    0.552     C
O       0.0428   0.6355   0.7111     O
C       0.0856   0.8486   0.0377     C
C       0.0895   0.8131   0.8895     C
H       0.1119   0.8971   0.0988     H
C       0.1132   0.5252   0.4098     C
H       0.1164   0.8375   0.8498     H
H       0.1176   0.3492   0.7751     H
C       0.1188   0.6335   0.5612     C
C       0.1287   0.8845   0.9798     C
H       0.1438   0.5194   0.3621     H
F       0.1478    0.672   0.2844     F
F       0.1524   0.9143   0.7337     F
H       0.1534   0.6992   0.6152     H
C       0.1615   0.6214   0.4894     C
H        0.172   0.0532   0.2502     H
C       0.1792    0.406   0.7764     C
H       0.1836   0.3198   0.6491     H
H       0.1838   0.9565   0.0018     H
H       0.2121   0.5154   0.9051     H
C       0.2173   0.3891   0.7003     C
C       0.2194   0.1288   0.2729     C
H       0.2251   0.6801    0.495     H
H       0.2284   0.1701   0.4026     H
C        0.233   0.5069   0.8532     C
H       0.2373   0.1218   0.1535     H
C        0.251   0.1988   0.3637     C
C       0.2578   0.1698   0.2144     C
F       0.2604   0.8595   0.2811     F
O        0.281   0.3818   0.5421     O
F       0.2914   0.6703   0.1867     F
F       0.2973   0.1184   0.7751     F
C        0.305   0.4754   0.7014     C
Sb     0.31138  0.73755  0.30743    Sb
F       0.3154   0.0288   0.8953     F
C       0.3162   0.3113   0.3954     C
C       0.3169   0.5951   0.8544     C
C       0.3257   0.2815   0.2484     C
F       0.3259   0.8013   0.4266     F
Sb     0.33016  0.97594  0.77899    Sb
F       0.3367   0.9216   0.6623     F
C       0.3519   0.5785   0.7775     C
C       0.3543   0.3538   0.3371     C
C       0.3544   0.4583   0.6264     C
F       0.3549   0.8343    0.782     F
C       0.3584   0.3863   0.4913     C
F       0.3632   0.6213   0.3403     F
C       0.3677    0.322   0.1885     C
C       0.3715   0.7036   0.9338     C
H       0.3984   0.4303   0.3589     H
H       0.4081   0.6381   0.7774     H
C       0.4089   0.3494    0.138     C
C       0.4141   0.7905   0.0003     C
C       0.4602   0.3859   0.0791     C
N       0.4664   0.5056   0.6281     N
H       0.4674   0.5577   0.1427     H
C       0.4681   0.8914    0.082     C
H       0.4682   0.2221   0.9959     H
H       0.4684   0.8143   0.1702     H
N       0.4685    0.458   0.5397     N
F       0.4823   0.7888   0.3249     F
H       0.4829   0.0064   0.0268     H
C       0.4843   0.5017   0.0944     C
C       0.4866   0.3008   0.0069     C
C       0.4898   0.8859   0.1675     C
C       0.4977   0.0002    0.082     C
F        0.508   0.0355   0.8259     F
C       0.5349   0.5355   0.0366     C
C         0.54   0.3353   0.9525     C
C       0.5402   0.9813   0.2442     C
C       0.5481   0.0998   0.1596     C
H       0.5531    0.614   0.0467     H
H       0.5567   0.9755   0.2996     H
C       0.5576   0.4484   0.9633     C
H       0.5644     0.28   0.9078     H
C       0.5678   0.0884    0.241     C
H       0.5683   0.1721   0.1578     H
C       0.6075   0.4842   0.9042     C
C       0.6187   0.1932    0.325     C
N       0.6466   0.5113   0.8575     N
N       0.6569   0.2727     0.39     N
Ag     0.65874  0.59038  0.74432    Ag
Ag      0.6596  0.46685  0.50742    Ag
N       0.6782   0.5426   0.4074     N
N        0.685   0.7743   0.8512     N
C       0.7087   0.5694   0.3592     C
C       0.7224   0.8588   0.9163     C
H       0.7429   0.7679   0.3425     H
C       0.7562   0.5979   0.2925     C
C       0.7662   0.7103   0.2985     C
C       0.7746    0.959   0.0013     C
H       0.7783   0.8708    0.078     H
H        0.781   0.0781   0.9467     H
H       0.7923   0.4382    0.228     H
C       0.7979   0.9448    0.079     C
C       0.7982    0.069    0.001     C
C       0.7986   0.5141   0.2309     C
C       0.8124   0.7361   0.2362     C
H        0.814   0.8103   0.2359     H
C       0.8478   0.1654   0.0825     C
C       0.8484   0.5429   0.1758     C
C       0.8503   0.0388   0.1594     C
N       0.8528   0.5593   0.7118     N
C       0.8554   0.6525   0.1757     C
N       0.8576   0.5118   0.6231     N
H       0.8621   0.2398    0.083     H
H       0.8693   0.0277   0.2129     H
C       0.8762   0.1517   0.1629     C
H       0.8795   0.4867    0.136     H
H       0.9075   0.5983   0.8929     H
C       0.9093   0.6829   0.1162     C
H       0.9125   0.3879   0.4673     H
C       0.9287   0.2519   0.2467     C
C       0.9532   0.7084   0.0664     C
C       0.9634   0.6308   0.7611     C
C       0.9641   0.6695   0.9153     C
C       0.9698    0.559   0.6256     C
C       0.9703   0.3349   0.3173     C
C       0.9746   0.4473   0.4725     C
