data_I
_chemical_name_common  '/home/zhangsd/repos/MofS-CGCNN/ML/data/WS24/clean_cifs/WIKGII'
_cell_length_a 17.04998
_cell_length_b 17.04998
_cell_length_c 34.00900
_cell_angle_alpha 101.42042
_cell_angle_beta  101.42042
_cell_angle_gamma 97.29274
_space_group_name_H-M_alt      'P 1'


loop_
_space_group_symop_operation_xyz
  'x, y, z' 

loop_
_atom_site_label
_atom_site_fract_x
_atom_site_fract_y
_atom_site_fract_z
_atom_site_type_symbol
H       0.0027   0.4585   0.6453     H
H       0.0041   0.2945   0.7119     H
C       0.0106    0.419   0.5287     C
C       0.0142   0.3712    0.677     C
C       0.0146   0.3542   0.1403     C
C       0.0202    0.266   0.1833     C
C       0.0231   0.5731   0.3401     C
C       0.0232   0.6698   0.3006     C
C        0.028   0.4852   0.5155     C
H       0.0359   0.3571   0.5733     H
H       0.0382   0.3814   0.1233     H
H       0.0383   0.6151   0.4849     H
H       0.0481   0.2319   0.1969     H
F       0.0503   0.8139    0.768     F
F       0.0561   0.5433   0.9022     F
C       0.0562   0.3032   0.1592     C
C       0.0564    0.725   0.8104     C
C       0.0579   0.3955   0.5607     C
C       0.0601   0.6335   0.8544     C
F       0.0838   0.5386   0.7636     F
F       0.0896   0.7636   0.2527     F
C       0.0973   0.3593   0.6697     C
C       0.0987   0.6753   0.8316     C
C       0.1015   0.5655    0.335     C
C        0.102   0.5226   0.5311     C
C       0.1022   0.6626   0.2943     C
C       0.1045   0.7683   0.7876     C
C       0.1073   0.5897    0.886     C
F       0.1131   0.5881   0.7409     F
F       0.1204   0.7316   0.7551     F
H       0.1205   0.5685   0.5224     H
O       0.1221   0.2967   0.6825     O
H       0.1275   0.5285    0.347     H
O      0.13191  0.40089  0.65236     O
N       0.1354    0.429   0.5729     N
C       0.1395   0.2945   0.1539     C
C       0.1414   0.6092   0.3135     C
F       0.1418    0.531   0.8607     F
F        0.142   0.5122   0.2334     F
F       0.1458   0.8492   0.8116     F
C       0.1472   0.7278   0.2788     C
F       0.1508   0.8542   0.6884     F
C       0.1519   0.5545   0.7732     C
C       0.1548    0.496   0.5608     C
F       0.1612    0.642   0.9211     F
F       0.1629   0.4315   0.2724     F
O       0.1693   0.3353  0.13172     O
O       0.1703   0.2429  0.17004     O
F       0.1779   0.6839   0.2451     F
F         0.18    0.498   0.7483     F
C       0.1848   0.6702   0.8295     C
F       0.1861   0.9497    0.732     F
F        0.196   0.4168   0.4049     F
F       0.2019   0.7905   0.3073     F
C       0.2021   0.4883   0.2565     C
H       0.2061   0.5271   0.5725     H
F       0.2095   0.7981   0.1927     F
C       0.2111   0.6191   0.8007     C
Zn     0.22036  0.39308  0.61722    Zn
C       0.2275   0.6069    0.314     C
H        0.228    0.765   0.8794     H
F       0.2294   0.5148   0.4617     F
C       0.2317   0.8955   0.7124     C
H       0.2319   0.0481   0.6969     H
Zn     0.23332  0.28578   0.6822    Zn
H       0.2348   0.6344   0.6193     H
H        0.235    0.772   0.6206     H
F       0.2364   0.9104   0.2473     F
F       0.2381   0.4429  0.23006     F
C       0.2414   0.4274     0.94     C
O       0.2429   0.1703  0.67004     O
C       0.2436   0.7278   0.8597     C
C       0.2587   0.5537   0.2877     C
H         0.26    0.412   0.0076     H
H       0.2638   0.2842   0.3722     H
H       0.2646   0.2652   0.3019     H
H       0.2652   0.2646   0.8019     H
H       0.2655   0.7015   0.3644     H
C        0.266   0.0202   0.6833     C
C       0.2672   0.4598   0.4374     C
O       0.2678   0.5148   0.6402     O
F       0.2684   0.8796   0.7449     F
C       0.2711   0.6737   0.6401     C
C       0.2722   0.7564   0.6403     C
C       0.2722   0.8528   0.2212     C
C        0.275   0.9436   0.6896     C
O       0.2794   0.3116  0.74179     O
O       0.2804   0.3538  0.06988     O
Zn     0.28194  0.35546  0.12655    Zn
H       0.2842   0.2638   0.8722     H
C       0.2845   0.6657   0.3456     C
H       0.2848   0.4394   0.5098     H
Zn     0.28578  0.23332   0.1822    Zn
H       0.2901   0.5969   0.1294     H
C       0.2906   0.6206   0.8009     C
O       0.2907   0.3861  0.57287     O
H       0.2945   0.0041   0.2119     H
C       0.2945   0.1395   0.6539     C
O       0.2967   0.1221   0.1825     O
H       0.2985   0.7345   0.1356     H
C       0.2987   0.3895   0.9954     C
C       0.2999   0.3067   0.8218     C
O      0.30002   0.3517  0.65778     O
C       0.3032   0.0562   0.6592     C
H       0.3058    0.583   0.7813     H
C       0.3067   0.2999   0.3218     C
C       0.3072   0.3102   0.3642     C
C       0.3082   0.4026   0.9564     C
F       0.3089   0.5175   0.4203     F
O      0.30995  0.47225  0.15002     O
C       0.3102   0.3072   0.8642     C
O       0.3116   0.2794  0.24179     O
C       0.3123   0.4035    0.496     C
F       0.3161   0.8221   0.2549     F
C       0.3182   0.5622   0.6689     C
C       0.3205   0.4089   0.4567     C
C       0.3227   0.6505   0.6699     C
C       0.3247   0.9013   0.6684     C
C       0.3263   0.7289   0.8599     C
C       0.3281   0.3383   0.5553     C
C       0.3288    0.633   0.1506     C
C       0.3298   0.8152   0.6705     C
C       0.3302   0.9768   0.1994     C
C       0.3303   0.3683   0.7655     C
C       0.3343   0.7155   0.1544     C
O       0.3353   0.1693  0.63172     O
C       0.3374   0.8978   0.2057     C
C       0.3383   0.3281   0.0553     C
C       0.3422   0.5596   0.2912     C
C       0.3425   0.3703   0.8105     C
C       0.3436   0.3466    0.515     C
C       0.3466   0.3436    0.015     C
C       0.3495   0.6773   0.8301     C
O       0.3517  0.30002  0.15778     O
O       0.3538   0.2804  0.56988     O
C       0.3542   0.0146   0.6403     C
Zn     0.35546  0.28194  0.62655    Zn
H       0.3571   0.0359   0.0733     H
F        0.358   0.8388   0.5789     F
C       0.3592   0.3674   0.9376     C
C       0.3593   0.0973   0.1697     C
C       0.3596   0.3726   0.8941     C
H       0.3617   0.5231   0.2729     H
H       0.3656   0.7652   0.8807     H
C       0.3665   0.9399   0.6456     C
C        0.367   0.6712   0.3494     C
C       0.3674   0.3592   0.4376     C
C       0.3683   0.3303   0.2655     C
O      0.36833  0.54487   0.6969     O
C       0.3703   0.3425   0.3105     C
C       0.3712   0.0142    0.177     C
O      0.37123  0.42437  0.75557     O
C       0.3721   0.5139   0.1752     C
C       0.3726   0.3596   0.3941     C
Zn     0.37665  0.43407  0.69975    Zn
C       0.3794   0.7094   0.6991     C
C       0.3809   0.7889   0.6993     C
H       0.3814   0.0382   0.6233     H
C        0.382   0.6042    0.179     C
H       0.3849   0.9617   0.0151     H
O       0.3861   0.2907  0.07287     O
C       0.3895   0.2987   0.4954     C
C       0.3908   0.8586   0.1865     C
Zn     0.39308  0.22036  0.11722    Zn
C       0.3931   0.7725    0.186     C
C       0.3955   0.0579   0.0607     C
C       0.3958    0.618    0.321     C
C       0.3973   0.4315   0.8401     C
O      0.40089  0.13191  0.15236     O
C       0.4026   0.3082   0.4564     C
H       0.4031   0.7099   0.3706     H
C       0.4035   0.3123    0.996     C
C       0.4052   0.4308   0.8808     C
C       0.4089   0.3205   0.9567     C
C       0.4103   0.8927    0.614     C
F       0.4119   0.8869   0.7591     F
H        0.412     0.26   0.5076     H
F       0.4168    0.196   0.9049     F
H        0.417   0.6942   0.7187     H
C        0.419   0.0106   0.0287     C
O      0.42437  0.37123  0.25557     O
O      0.42562  0.48978  0.19759     O
C       0.4269   0.9769   0.1599     C
C       0.4274   0.2414     0.44     C
H       0.4281   0.4723   0.8323     H
N        0.429   0.1354   0.0729     N
C       0.4308   0.4052   0.3808     C
F       0.4315   0.1629   0.7724     F
C       0.4315   0.3973   0.3401     C
H       0.4315   0.8795   0.9776     H
F       0.4337   0.5581    0.922     F
Zn     0.43407  0.37665  0.19975    Zn
C       0.4345   0.8985    0.165     C
C       0.4378   0.6818   0.8311     C
H       0.4394   0.2848   0.0098     H
C       0.4404   0.6578   0.2088     C
F       0.4419   0.5663    0.578     F
F       0.4429   0.2381  0.73006     F
C       0.4455   0.8481   0.7268     C
C       0.4463   0.7413   0.2123     C
O      0.45513  0.63167   0.8031     O
F       0.4567   0.9439   0.5978     F
H       0.4585   0.0027   0.1453     H
C       0.4598   0.2672   0.9374     C
F       0.4614   0.9162   0.7364     F
F       0.4627   0.5241   0.4381     F
F       0.4657   0.5087   0.9454     F
C       0.4669   0.4895   0.9111     C
F       0.4686   0.4788   0.6029     F
F        0.469   0.8582   0.6393     F
H       0.4715   0.8725    0.153     H
O      0.47225  0.30995  0.65002     O
H       0.4723   0.4281   0.3323     H
H       0.4729   0.7939   0.9275     H
F       0.4759   0.5373   0.0619     F
H       0.4769   0.6383   0.2271     H
C       0.4774    0.898   0.9689     C
F       0.4788   0.4686   0.1029     F
F       0.4825   0.6911   0.0797     F
C       0.4852    0.028   0.0155     C
O       0.4852   0.7322   0.8598     O
F       0.4852   0.7706   0.0383     F
C       0.4861   0.6279   0.3248     C
F       0.4878    0.858   0.2666     F
C       0.4883   0.2021   0.7565     C
C       0.4895   0.4669   0.4111     C
O      0.48978  0.42562  0.69759     O
F       0.4913   0.5343   0.5546     F
C        0.496   0.1548   0.0608     C
F        0.498     0.18   0.2483     F
F        0.502     0.82   0.7517     F
C        0.504   0.8452   0.9392     C
F       0.5087   0.4657   0.4454     F
O      0.51022  0.57438  0.30241     O
C       0.5105   0.5331   0.5889     C
C       0.5117   0.7979   0.2435     C
F       0.5122    0.142   0.7334     F
C       0.5139   0.3721   0.6752     C
F       0.5148   0.2294   0.9617     F
O       0.5148   0.2678   0.1402     O
C       0.5148    0.972   0.9845     C
F       0.5175   0.3089   0.9203     F
F       0.5212   0.5314   0.8971     F
C       0.5226    0.102   0.0311     C
H       0.5231   0.3617   0.7729     H
F       0.5241   0.4627   0.9381     F
H       0.5271   0.2061   0.0725     H
H       0.5277   0.5719   0.6677     H
O      0.52775  0.69005  0.34998     O
H       0.5285   0.1275    0.847     H
F        0.531   0.1418   0.3607     F
F       0.5314   0.5212   0.3971     F
C       0.5331   0.5105   0.0889     C
F       0.5343   0.4913   0.0546     F
F       0.5373   0.4759   0.5619     F
F       0.5386   0.0838   0.2636     F
C       0.5402   0.7328   0.0626     C
H       0.5415   0.9973   0.8547     H
F       0.5433   0.0561   0.4022     F
O      0.54487  0.36833   0.1969     O
C       0.5537   0.2587   0.7877     C
C       0.5545   0.1519   0.2732     C
F       0.5571   0.7619  0.26994     F
F       0.5581   0.4337    0.422     F
C       0.5596   0.3422   0.7912     C
H       0.5606   0.7152   0.9902     H
C       0.5622   0.3182   0.1689     C
C       0.5655   0.1015    0.835     C
Zn     0.56593  0.62335  0.80025    Zn
F       0.5663   0.4419    0.078     F
H       0.5685   0.1205   0.0224     H
C       0.5685   0.6027   0.6599     C
F       0.5685   0.8371   0.2276     F
C       0.5692   0.5948   0.6192     C
N        0.571   0.8646   0.9271     N
H       0.5719   0.5277   0.1677     H
C       0.5726   0.7586     0.56     C
C       0.5731   0.0231   0.8401     C
O      0.57438  0.51022  0.80241     O
O      0.57563  0.62877  0.74443     O
C        0.581   0.9894   0.9713     C
H        0.583   0.3058   0.2813     H
F       0.5832    0.804   0.0951     F
H        0.588     0.74   0.4924     H
F       0.5881   0.1131   0.2409     F
C       0.5897   0.1073    0.386     C
C       0.5911   0.6795   0.0433     C
C       0.5948   0.5692   0.1192     C
C       0.5965   0.6877    0.004     C
H       0.5969   0.2901   0.6294     H
C       0.5974   0.6918   0.5436     C
O      0.59911  0.86809  0.84764     O
C       0.6027   0.5685   0.1599     C
C       0.6042    0.382    0.679     C
C       0.6045   0.9421   0.9393     C
C       0.6069   0.2275    0.814     C
Zn     0.60692  0.77964  0.88278    Zn
C       0.6092   0.1414   0.8135     C
C       0.6105   0.7013   0.5046     C
O       0.6139   0.7093  0.92713     O
H       0.6151   0.0383   0.9849     H
C        0.618   0.3958    0.821     C
H       0.6186   0.9618   0.3767     H
C       0.6191   0.2111   0.3007     C
C       0.6206   0.2906   0.3009     C
Zn     0.62335  0.56593  0.30025    Zn
C       0.6274   0.6404   0.6059     C
C       0.6279   0.4861   0.8248     C
O      0.62877  0.57563  0.24443     O
C       0.6288   0.9858    0.823     C
C       0.6297   0.6575   0.6895     C
O      0.63167  0.45513   0.3031     O
C       0.6317   0.6697   0.7345     C
C       0.6326   0.6408   0.5624     C
C        0.633   0.3288   0.6506     C
C       0.6335   0.0601   0.3544     C
H       0.6344   0.2348   0.1193     H
H       0.6383   0.4769   0.7271     H
C       0.6404   0.6274   0.1059     C
C       0.6407   0.9027   0.8303     C
C       0.6408   0.6326   0.0624     C
F        0.642   0.1612   0.4211     F
H       0.6429   0.9641   0.9267     H
Zn     0.64454  0.71806  0.37345    Zn
C       0.6458   0.9854   0.3597     C
O       0.6462   0.7196  0.43012     O
O       0.6483  0.69998  0.84222     O
C       0.6505   0.3227   0.1699     C
C       0.6534   0.6564    0.985     C
C       0.6564   0.6534    0.485     C
C       0.6575   0.6297   0.1895     C
C       0.6578   0.4404   0.7088     C
C       0.6617   0.6719   0.9447     C
C       0.6626   0.1022   0.7943     C
O       0.6647   0.8307  0.36828     O
C       0.6657   0.2845   0.8456     C
C       0.6697   0.6317   0.2345     C
C       0.6698   0.0232   0.8006     C
C       0.6702   0.1848   0.3295     C
C       0.6712    0.367   0.8494     C
C       0.6719   0.6617   0.4447     C
C       0.6737   0.2711   0.1401     C
C       0.6753   0.0987   0.3316     C
C       0.6773   0.3495   0.3301     C
C       0.6795   0.5911   0.5433     C
C       0.6818   0.4378   0.3311     C
F       0.6839   0.1779   0.7451     F
C       0.6877   0.5965    0.504     C
O       0.6884   0.7206  0.75821     O
C       0.6898   0.6928   0.1358     C
O      0.69005  0.52775  0.84998     O
F       0.6911   0.4825   0.5797     F
C       0.6918   0.5974   0.0436     C
C       0.6928   0.6898   0.6358     C
C       0.6933   0.7001   0.6782     C
H       0.6942    0.417   0.2187     H
C       0.6968   0.9438   0.3408     C
O      0.69998   0.6483  0.34222     O
C       0.7001   0.6933   0.1782     C
C       0.7013   0.6105   0.0046     C
H       0.7015   0.2655   0.8644     H
O       0.7033   0.8779   0.8175     O
C       0.7055   0.8605   0.3461     C
H       0.7055   0.9959   0.7881     H
O       0.7093   0.6139  0.42713     O
C       0.7094   0.3794   0.1991     C
H       0.7099   0.4031   0.8706     H
Zn     0.71422  0.76668   0.8178    Zn
H       0.7152   0.5606   0.4902     H
C       0.7155   0.3343   0.6544     C
H       0.7158   0.7362   0.1278     H
Zn     0.71806  0.64454  0.87345    Zn
O       0.7196   0.6462  0.93012     O
O       0.7206   0.6884  0.25821     O
C        0.725   0.0564   0.3104     C
C       0.7278   0.1472   0.7788     C
C       0.7278   0.2436   0.3597     C
C       0.7289   0.3263   0.3599     C
F       0.7316   0.1204   0.2551     F
O       0.7322   0.4852   0.3598     O
C       0.7328   0.5402   0.5626     C
C        0.734   0.9798   0.3167     C
H       0.7345   0.2985   0.6356     H
H       0.7348   0.7354   0.1981     H
H       0.7354   0.7348   0.6981     H
H       0.7362   0.7158   0.6278     H
H         0.74    0.588   0.9924     H
C       0.7413   0.4463   0.7123     C
C       0.7564   0.2722   0.1403     C
O       0.7571   0.8297  0.32996     O
C       0.7586   0.5726     0.06     C
F       0.7619   0.5571  0.76994     F
F       0.7636   0.0896   0.7527     F
H        0.765    0.228   0.3794     H
H       0.7652   0.3656   0.3807     H
Zn     0.76668  0.71422   0.3178    Zn
H       0.7681   0.9519   0.3031     H
C       0.7683   0.1045   0.2876     C
F       0.7706   0.4852   0.5383     F
H        0.772    0.235   0.1206     H
C       0.7725   0.3931    0.686     C
Zn     0.77964  0.60692  0.38278    Zn
C       0.7889   0.3809   0.1993     C
F       0.7905   0.2019   0.8073     F
H       0.7939   0.4729   0.4275     H
C       0.7979   0.5117   0.7435     C
F       0.7981   0.2095   0.6927     F
F        0.804   0.5832   0.5951     F
F       0.8139   0.0503    0.268     F
C       0.8152   0.3298   0.1705     C
F         0.82    0.502   0.2517     F
F       0.8221   0.3161   0.7549     F
O       0.8297   0.7571  0.82996     O
O       0.8307   0.6647  0.86828     O
F       0.8371   0.5685   0.7276     F
F       0.8388    0.358   0.0789     F
C       0.8452    0.504   0.4392     C
C       0.8481   0.4455   0.2268     C
F       0.8492   0.1458   0.3116     F
C       0.8528   0.2722   0.7212     C
F       0.8542   0.1508   0.1884     F
F        0.858   0.4878   0.7666     F
F       0.8582    0.469   0.1393     F
C       0.8586   0.3908   0.6865     C
C       0.8605   0.7055   0.8461     C
N       0.8646    0.571   0.4271     N
O      0.86809  0.59911  0.34764     O
H       0.8725   0.4715    0.653     H
O       0.8779   0.7033   0.3175     O
H       0.8795   0.4315   0.4776     H
F       0.8796   0.2684   0.2449     F
F       0.8869   0.4119   0.2591     F
C       0.8927   0.4103    0.114     C
C       0.8955   0.2317   0.2124     C
C       0.8978   0.3374   0.7057     C
C        0.898   0.4774   0.4689     C
C       0.8985   0.4345    0.665     C
C       0.9013   0.3247   0.1684     C
C       0.9027   0.6407   0.3303     C
F       0.9104   0.2364   0.7473     F
F       0.9162   0.4614   0.2364     F
C       0.9399   0.3665   0.1456     C
C       0.9421   0.6045   0.4393     C
C       0.9436    0.275   0.1896     C
C       0.9438   0.6968   0.8408     C
F       0.9439   0.4567   0.0978     F
F       0.9497   0.1861    0.232     F
H       0.9519   0.7681   0.8031     H
H       0.9617   0.3849   0.5151     H
H       0.9618   0.6186   0.8767     H
H       0.9641   0.6429   0.4267     H
C        0.972   0.5148   0.4845     C
C       0.9768   0.3302   0.6994     C
C       0.9769   0.4269   0.6599     C
C       0.9798    0.734   0.8167     C
C       0.9854   0.6458   0.8597     C
C       0.9858   0.6288    0.323     C
C       0.9894    0.581   0.4713     C
H       0.9959   0.7055   0.2881     H
H       0.9973   0.5415   0.3547     H
