data_I
_chemical_name_common  '/home/zhangsd/repos/MofS-CGCNN/ML/data/WS24/clean_cifs/WITFOW'
_cell_length_a 15.93690
_cell_length_b 16.05770
_cell_length_c 16.94950
_cell_angle_alpha 109.36700
_cell_angle_beta  90.00000
_cell_angle_gamma 90.00000
_space_group_name_H-M_alt      'P 1'


loop_
_space_group_symop_operation_xyz
  'x, y, z' 

loop_
_atom_site_label
_atom_site_fract_x
_atom_site_fract_y
_atom_site_fract_z
_atom_site_type_symbol
C       0.0014   0.6329   0.4016     C
H       0.0033   0.0958   0.6992     H
H       0.0065   0.3025    0.583     H
H       0.0066   0.1833    0.297     H
H       0.0132    0.747   0.5612     H
O       0.0141   0.8669   0.8513     O
C       0.0173   0.1445    0.961     C
O       0.0209   0.1048   0.8821     O
C       0.0248   0.2766   0.4094     C
H       0.0249   0.0787   0.5599     H
C        0.027   0.9004    0.415     C
H       0.0354   0.9246    0.578     H
H        0.037   0.4631   0.5481     H
C       0.0372    0.235   0.3239     C
C       0.0391   0.8884   0.3317     C
H       0.0414   0.4776   0.6978     H
C       0.0553   0.4024   0.5421     C
H       0.0565   0.4906   0.8375     H
C        0.059   0.4153   0.6727     C
C       0.0593   0.8013   0.0064     C
H       0.0613   0.7399   0.0918     H
C       0.0676   0.4299   0.8234     C
C       0.0687   0.3527   0.4507     C
O       0.0729   0.1387   0.0099     O
C       0.0738   0.3775   0.7401     C
H       0.0758   0.4285   0.9442     H
C       0.0777   0.8773   0.8966     C
C        0.078   0.3918    0.888     C
C       0.0859   0.9015   0.5509     C
C       0.0889   0.7436   0.0441     C
N       0.0894   0.2642   0.2787     N
N       0.0905   0.3078   0.8707     N
Zn     0.09097  0.20493  0.14573    Zn
C       0.0911   0.2913   0.7261     C
C       0.0923   0.8814   0.4635     C
C       0.0929    0.612   0.3899     C
H       0.0953   0.5689   0.2635     H
H       0.0983   0.2529    0.671     H
C       0.0987   0.2575   0.7953     C
O       0.1014   0.9811   0.7269     O
C       0.1035   0.8099   0.9367     C
H       0.1066   0.0035   0.1091     H
H       0.1099   0.1972   0.7842     H
C       0.1128   0.8535   0.2937     C
Zn     0.11569  0.02351  0.84763    Zn
H       0.1202   0.8451   0.2366     H
H       0.1206   0.5859   0.6665     H
C       0.1255   0.3817   0.4041     C
H       0.1268   0.6481   0.5116     H
O       0.1275   0.9419   0.9109     O
C       0.1283   0.4084   0.6053     C
C       0.1291   0.5795   0.3113     C
C        0.135   0.3363   0.3194     C
C       0.1448   0.9124   0.6907     C
C       0.1475   0.6255   0.4566     C
C       0.1519   0.8879   0.5971     C
O        0.152   0.4081   0.1375     O
H       0.1543   0.0489   0.4268     H
H       0.1556   0.3498   0.5909     H
H       0.1579   0.4324   0.4299     H
C       0.1593   0.6899   0.0134     C
H       0.1611   0.6228   0.0973     H
C       0.1629   0.0206   0.1198     C
C       0.1671   0.8447   0.4239     C
C       0.1737   0.7585   0.9068     C
H       0.1748   0.3567   0.2892     H
C       0.1758   0.8305   0.3369     C
C       0.1763   0.5673   0.6532     C
N        0.181   0.1071   0.1468     N
O       0.1816   0.8696   0.7273     O
O       0.1821   0.2657   0.1072     O
C       0.1888   0.6284   0.0503     C
C       0.1947   0.4775   0.6224     C
C       0.1962   0.3419   0.1053     C
C       0.2015   0.0842   0.4481     C
H       0.2016   0.1442   0.3627     H
C       0.2018   0.6968   0.9433     C
H       0.2033   0.7651   0.8612     H
H       0.2065   0.8964   0.0874     H
C       0.2132   0.5628   0.3024     C
H       0.2164   0.3032   0.9453     H
C       0.2227    0.956    0.107     C
H       0.2235   0.0367   0.5438     H
H        0.224   0.6888   0.6853     H
H       0.2253   0.8051   0.3091     H
C       0.2263   0.8516   0.5568     C
C       0.2289   0.1413   0.4108     C
C        0.231   0.6065   0.4435     C
C       0.2337   0.8292   0.4719     C
H       0.2339   0.1162   0.9902     H
N       0.2346   0.0742   0.8663     N
H       0.2354    0.542    0.248     H
C       0.2385   0.6287   0.6644     C
C       0.2428    0.077   0.5185     C
C       0.2572    0.577   0.0185     C
C       0.2615   0.1287   0.1644     C
H       0.2646    0.042    0.748     H
N       0.2654   0.5742   0.3663     N
H       0.2661   0.6162   0.4902     H
C       0.2663   0.3292   0.9719     C
C        0.269   0.1065   0.9435     C
C       0.2711   0.6413   0.9108     C
C       0.2737   0.3516   0.0568     C
H       0.2747   0.3051   0.8091     H
H        0.276   0.1888   0.1853     H
H       0.2765   0.5367   0.0438     H
C       0.2773    0.456    0.607     C
H       0.2836   0.8032   0.4453     H
C       0.2868   0.0628   0.8024     C
H       0.2935   0.3964   0.5874     H
H       0.2967   0.2651   0.3612     H
C       0.2982   0.1968   0.4433     C
H       0.2984   0.6442   0.8627     H
C       0.2985   0.5842   0.9481     C
C       0.3038   0.8419   0.6053     C
C       0.3053   0.9775   0.1224     C
C       0.3112   0.1284   0.5503     C
O       0.3179   0.7657   0.6072     O
O       0.3184   0.3696   0.2273     O
N        0.319   0.6071   0.6468     N
C       0.3237   0.0673   0.1532     C
C       0.3242   0.3305   0.8369     C
H       0.3252   0.8567   0.7892     H
C       0.3263   0.2585   0.4068     C
C       0.3329   0.3447   0.9239     C
C       0.3371   0.5206   0.6198     C
H       0.3389   0.1228   0.5973     H
C       0.3407   0.1899   0.5134     C
H       0.3421   0.9324   0.9299     H
H       0.3444   0.8498   0.0909     H
H       0.3457   0.5489   0.9268     H
O        0.348   0.9081   0.6375     O
C       0.3481   0.3879   0.0971     C
C       0.3525   0.1255   0.9566     C
C       0.3552   0.4124   0.1907     C
C        0.365   0.8363   0.8194     C
C       0.3709   0.0795   0.8113     C
C       0.3717   0.9084   0.1053     C
O       0.3725   0.4419   0.4109     O
H       0.3732   0.1481   0.0116     H
C       0.3745   0.8817   0.9041     C
H       0.3794   0.0859   0.1665     H
H       0.3798   0.3451   0.7366     H
Zn     0.38431  0.52351  0.34763    Zn
C       0.3872   0.3535   0.7937     C
H       0.3901   0.6972   0.2842     H
H       0.3934   0.5035   0.6091     H
C       0.3965   0.3099   0.4367     C
O       0.3986   0.4811   0.2269     O
C       0.4013   0.7575   0.2953     C
H       0.4017   0.7529    0.171     H
H       0.4047   0.0689   0.7635     H
C       0.4071    0.112   0.8899     C
C       0.4077   0.3814   0.9635     C
C       0.4089   0.7913   0.2261     C
Zn     0.40903  0.70493  0.64573    Zn
N       0.4095   0.8078   0.3707     N
N       0.4106   0.7642   0.7787     N
C       0.4111   0.2436   0.5441     C
C       0.4141   0.4015   0.0509     C
C        0.422   0.8918    0.388     C
C       0.4223   0.3773   0.3966     C
H       0.4242   0.9285   0.4442     H
C       0.4262   0.8775   0.2401     C
O       0.4271   0.6387   0.5099     O
C       0.4313   0.8527   0.9507     C
C       0.4324   0.9299   0.3234     C
H       0.4387   0.2399   0.5918     H
C       0.4407   0.3013   0.5064     C
C        0.441   0.9153   0.1727     C
H       0.4435   0.9906   0.3375     H
C       0.4447   0.9024   0.0421     C
H       0.4586   0.9776   0.1978     H
C       0.4609   0.3884   0.8317     C
C       0.4628    0.735   0.8239     C
H        0.463   0.9631   0.0481     H
H       0.4646   0.4246    0.078     H
C        0.473   0.4004    0.915     C
H       0.4751   0.5787   0.0599     H
C       0.4752   0.7766   0.9094     C
O       0.4791   0.6048   0.3821     O
C       0.4827   0.6445    0.461     C
O       0.4859   0.3669   0.3513     O
H       0.4868    0.247   0.0612     H
H       0.4934   0.6833    0.797     H
H       0.4935   0.8025    0.083     H
H       0.4967   0.5958   0.1992     H
C       0.4986   0.1329   0.9016     C
C       0.5014   0.8671   0.0984     C
H       0.5033   0.4042   0.8008     H
H       0.5065   0.1975    0.917     H
H       0.5066   0.3167    0.203     H
H       0.5132    0.753   0.9388     H
O       0.5141   0.6331   0.6487     O
C       0.5173   0.3555    0.539     C
O       0.5209   0.3952   0.6179     O
C       0.5248   0.2234   0.0906     C
H       0.5249   0.4213   0.9401     H
C        0.527   0.5996    0.085     C
H       0.5354   0.5754    0.922     H
H        0.537   0.0369   0.9519     H
C       0.5372    0.265   0.1761     C
C       0.5391   0.6116   0.1683     C
H       0.5414   0.0224   0.8022     H
C       0.5553   0.0976   0.9579     C
H       0.5565   0.0094   0.6625     H
C        0.559   0.0847   0.8273     C
C       0.5593   0.6987   0.4936     C
H       0.5613   0.7601   0.4082     H
C       0.5676   0.0701   0.6766     C
C       0.5687   0.1473   0.0493     C
O       0.5729   0.3613   0.4901     O
C       0.5738   0.1225   0.7599     C
H       0.5758   0.0715   0.5558     H
C       0.5777   0.6227   0.6034     C
C        0.578   0.1082    0.612     C
C       0.5859   0.5985   0.9491     C
C       0.5889   0.7564   0.4559     C
N       0.5894   0.2358   0.2213     N
N       0.5905   0.1922   0.6293     N
Zn     0.59097  0.29507  0.35427    Zn
C       0.5911   0.2087   0.7739     C
C       0.5923   0.6186   0.0365     C
C       0.5929    0.888   0.1101     C
H       0.5953   0.9311   0.2365     H
H       0.5983   0.2471    0.829     H
C       0.5987   0.2425   0.7047     C
O       0.6014   0.5189   0.7731     O
C       0.6035   0.6901   0.5633     C
H       0.6066   0.4965   0.3909     H
H       0.6099   0.3028   0.7158     H
C       0.6128   0.6465   0.2063     C
Zn     0.61569  0.47649  0.65237    Zn
H       0.6202   0.6549   0.2634     H
H       0.6206   0.9141   0.8335     H
C       0.6255   0.1183   0.0959     C
H       0.6268   0.8519   0.9884     H
O       0.6275   0.5581   0.5891     O
C       0.6283   0.0916   0.8947     C
C       0.6291   0.9205   0.1887     C
C        0.635   0.1637   0.1806     C
C       0.6448   0.5876   0.8093     C
C       0.6475   0.8745   0.0434     C
C       0.6519   0.6121   0.9029     C
O        0.652   0.0919   0.3625     O
H       0.6543   0.4511   0.0732     H
H       0.6556   0.1502   0.9091     H
H       0.6579   0.0676   0.0701     H
C       0.6593   0.8101   0.4866     C
H       0.6611   0.8772   0.4027     H
C       0.6629   0.4794   0.3802     C
C       0.6671   0.6553   0.0761     C
C       0.6737   0.7415   0.5932     C
H       0.6748   0.1433   0.2108     H
C       0.6758   0.6695   0.1631     C
C       0.6763   0.9327   0.8468     C
N        0.681   0.3929   0.3532     N
O       0.6816   0.6304   0.7727     O
O       0.6821   0.2343   0.3928     O
C       0.6888   0.8716   0.4497     C
C       0.6947   0.0225   0.8776     C
C       0.6962   0.1581   0.3947     C
C       0.7015   0.4158   0.0519     C
H       0.7016   0.3558   0.1373     H
C       0.7018   0.8032   0.5567     C
H       0.7033   0.7349   0.6388     H
H       0.7065   0.6036   0.4126     H
C       0.7132   0.9372   0.1976     C
H       0.7164   0.1968   0.5547     H
C       0.7227    0.544    0.393     C
H       0.7235   0.4633   0.9562     H
H        0.724   0.8112   0.8147     H
H       0.7253   0.6949   0.1909     H
C       0.7263   0.6484   0.9432     C
C       0.7289   0.3587   0.0892     C
C        0.731   0.8935   0.0565     C
C       0.7337   0.6708   0.0281     C
H       0.7339   0.3838   0.5098     H
N       0.7346   0.4258   0.6337     N
H       0.7354    0.958    0.252     H
C       0.7385   0.8713   0.8356     C
C       0.7428    0.423   0.9815     C
C       0.7572    0.923   0.4815     C
C       0.7615   0.3713   0.3356     C
H       0.7646    0.458    0.752     H
N       0.7654   0.9258   0.1337     N
H       0.7661   0.8838   0.0098     H
C       0.7663   0.1708   0.5281     C
C        0.769   0.3935   0.5565     C
C       0.7711   0.8587   0.5892     C
C       0.7737   0.1484   0.4432     C
H       0.7747   0.1949   0.6909     H
H        0.776   0.3112   0.3147     H
H       0.7765   0.9633   0.4562     H
C       0.7773    0.044    0.893     C
H       0.7836   0.6968   0.0547     H
C       0.7868   0.4372   0.6976     C
H       0.7935   0.1036   0.9126     H
H       0.7967   0.2349   0.1388     H
C       0.7982   0.3032   0.0567     C
H       0.7984   0.8558   0.6373     H
C       0.7985   0.9158   0.5519     C
C       0.8038   0.6581   0.8947     C
C       0.8053   0.5225   0.3776     C
C       0.8112   0.3716   0.9497     C
O       0.8179   0.7343   0.8928     O
O       0.8184   0.1304   0.2727     O
N        0.819   0.8929   0.8532     N
C       0.8237   0.4327   0.3468     C
C       0.8242   0.1695   0.6631     C
H       0.8252   0.6433   0.7108     H
C       0.8263   0.2415   0.0932     C
C       0.8329   0.1553   0.5761     C
C       0.8371   0.9794   0.8802     C
H       0.8389   0.3772   0.9027     H
C       0.8407   0.3101   0.9866     C
H       0.8421   0.5676   0.5701     H
H       0.8444   0.6502   0.4091     H
H       0.8457   0.9511   0.5732     H
O        0.848   0.5919   0.8625     O
C       0.8481   0.1121   0.4029     C
C       0.8525   0.3745   0.5434     C
C       0.8552   0.0876   0.3093     C
C        0.865   0.6637   0.6806     C
C       0.8709   0.4205   0.6887     C
C       0.8717   0.5916   0.3947     C
O       0.8725   0.0581   0.0891     O
H       0.8732   0.3519   0.4884     H
C       0.8745   0.6183   0.5959     C
H       0.8794   0.4141   0.3335     H
H       0.8798   0.1549   0.7634     H
Zn     0.88431  0.97649  0.15237    Zn
C       0.8872   0.1465   0.7063     C
H       0.8901   0.8028   0.2158     H
H       0.8934   0.9965   0.8909     H
C       0.8965   0.1901   0.0633     C
O       0.8986   0.0189   0.2731     O
C       0.9013   0.7425   0.2047     C
H       0.9017   0.7471    0.329     H
H       0.9047   0.4311   0.7365     H
C       0.9071    0.388   0.6101     C
C       0.9077   0.1186   0.5365     C
C       0.9089   0.7087   0.2739     C
Zn     0.90903  0.79507  0.85427    Zn
N       0.9095   0.6922   0.1293     N
N       0.9106   0.7358   0.7213     N
C       0.9111   0.2564   0.9559     C
C       0.9141   0.0985   0.4491     C
C        0.922   0.6082    0.112     C
C       0.9223   0.1227   0.1034     C
H       0.9242   0.5715   0.0558     H
C       0.9262   0.6225   0.2599     C
O       0.9271   0.8613   0.9901     O
C       0.9313   0.6473   0.5493     C
C       0.9324   0.5701   0.1766     C
H       0.9387   0.2601   0.9082     H
C       0.9407   0.1987   0.9936     C
C        0.941   0.5847   0.3273     C
H       0.9435   0.5094   0.1625     H
C       0.9447   0.5976   0.4579     C
H       0.9586   0.5224   0.3022     H
C       0.9609   0.1116   0.6683     C
C       0.9628    0.765   0.6761     C
H        0.963   0.5369   0.4519     H
H       0.9646   0.0754    0.422     H
C        0.973   0.0996    0.585     C
H       0.9751   0.9213   0.4401     H
C       0.9752   0.7234   0.5906     C
O       0.9791   0.8952   0.1179     O
C       0.9827   0.8555    0.039     C
O       0.9859   0.1331   0.1487     O
H       0.9868    0.253   0.4388     H
H       0.9934   0.8167    0.703     H
H       0.9935   0.6975    0.417     H
H       0.9967   0.9042   0.3008     H
C       0.9986   0.3671   0.5984     C
