data_I
_chemical_name_common  '/home/zhangsd/repos/MofS-CGCNN/ML/data/WS24/clean_cifs/WITFIQ'
_cell_length_a 18.61500
_cell_length_b 18.61500
_cell_length_c 29.46400
_cell_angle_alpha 90.00000
_cell_angle_beta  90.00000
_cell_angle_gamma 120.00000
_space_group_name_H-M_alt      'P 1'


loop_
_space_group_symop_operation_xyz
  'x, y, z' 

loop_
_atom_site_label
_atom_site_fract_x
_atom_site_fract_y
_atom_site_fract_z
_atom_site_type_symbol
H        0.004   0.2659  0.35093     H
H        0.004   0.7381   0.4824     H
Zn     0.02576  0.51288  0.91667    Zn
C       0.0263   0.2835  0.07307     C
C       0.0263   0.7428  0.76026     C
H       0.0305   0.4374  0.32967     H
H       0.0305   0.5931  0.50367     H
O      0.05687  0.42775  0.92751     O
O      0.05687  0.62912  0.90582     O
O      0.05994  0.27134  0.10731     O
O      0.05994   0.7886  0.72602     O
C       0.0615   0.2983  0.35155     C
C       0.0615   0.7632  0.48178     C
N      0.06279  0.52408  0.46934     N
N      0.06279  0.53871    0.364     N
C       0.0665  0.29779  0.26641     C
C       0.0665  0.76871  0.56692     C
O      0.07018  0.33848   0.0466     O
O      0.07018   0.7317  0.78673     O
H       0.0706   0.3054  0.41883     H
H       0.0706   0.7652   0.4145     H
C       0.0707  0.49312  0.33195     C
C       0.0707  0.57758  0.50139     C
H       0.0865   0.2939  0.20023     H
H       0.0865   0.7926   0.6331     H
H        0.091   0.4394  0.13587     H
H        0.091   0.6516  0.69747     H
C       0.1012   0.3219  0.39204     C
C       0.1012   0.7793  0.44129     C
C      0.10601    0.322  0.31001     C
C      0.10601  0.78401  0.52332     C
C      0.11234  0.44509  0.89828     C
C      0.11234  0.66725  0.93505     C
C       0.1126   0.3131  0.22804     C
C       0.1126   0.7995  0.60529     C
H       0.1144   0.4631  0.44577     H
H       0.1144   0.6513  0.38757     H
C       0.1201   0.5018  0.46747     C
C       0.1201   0.6183  0.36587     C
H        0.123   0.5498  0.18297     H
H        0.123   0.5732  0.65037     H
H       0.1354   0.3658  0.96273     H
H       0.1354   0.7696   0.8706     H
O      0.13667  0.50608  0.87303     O
O      0.13667  0.63059   0.9603     O
C       0.1369  0.52542  0.30176     C
C       0.1369  0.61148  0.53158     C
H       0.1377   0.4285  0.81023     H
H       0.1377   0.7092   0.0231     H
H         0.14   0.4913  0.27977     H
H         0.14   0.6487  0.55357     H
C      0.14558   0.4723   0.1454     C
C      0.14558  0.67328  0.68794     C
C      0.14982  0.38988  0.89631     C
C      0.14982  0.75994  0.93702     C
C      0.15817  0.35785  0.93639     C
C      0.15817  0.80032  0.89694     C
C       0.1619   0.3953  0.81181     C
C       0.1619   0.7666  0.02152     C
C      0.16411   0.5381  0.17422     C
C      0.16411  0.62601  0.65912     C
H       0.1688   0.4883   0.0306     H
H       0.1688   0.6805  0.80273     H
H       0.1722   0.3873  0.74483     H
H       0.1722   0.7849   0.0885     H
C       0.1763  0.37069  0.85486     C
C       0.1763  0.80561  0.97847     C
Zn     0.17967  0.35934  0.08333    Zn
Zn     0.17967  0.82034     0.75    Zn
C       0.1829   0.3713  0.77271     C
C       0.1829   0.8116  0.06062     C
C       0.1881   0.5332  0.49605     C
C       0.1881   0.6549  0.33729     C
C       0.1884   0.3713  0.39395     C
C       0.1884   0.8171  0.43938     C
C      0.19439  0.37069   0.3118     C
C      0.19439   0.8237  0.52153     C
C      0.19752  0.59024  0.52913     C
C      0.19752  0.60728  0.30421     C
C      0.19968  0.35785  0.23027     C
C      0.19968  0.84183  0.60306     C
C       0.2005   0.3131  0.93862     C
C       0.2005   0.8874  0.89471     C
N      0.20136  0.45393  0.13082     N
N      0.20136  0.74743  0.70252     N
H       0.2074   0.2939  0.96643     H
H       0.2074   0.9135   0.8669     H
O       0.2114  0.27134  0.05936     O
O       0.2114  0.94006  0.77398     O
H       0.2151   0.3873  0.42183     H
H       0.2151   0.8278   0.4115     H
C      0.21599    0.322  0.85665     C
C      0.21599  0.89399  0.97668     C
C       0.2207   0.3219  0.77462     C
C       0.2207   0.8988  0.05871     C
C      0.22135   0.5008  0.02087     C
C      0.22135  0.72055  0.81246     C
H        0.227    0.516  0.49317     H
H        0.227    0.711  0.34017     H
H       0.2304   0.3658  0.20393     H
H       0.2304   0.8646   0.6294     H
H       0.2308   0.5507  0.61577     H
H       0.2308   0.6801  0.21757     H
C      0.23129  0.29779  0.90025     C
C      0.23129   0.9335  0.93308     C
C       0.2334   0.3953  0.35485     C
C       0.2334   0.8381  0.47848     C
H       0.2348   0.3054  0.74783     H
H       0.2348   0.9294   0.0855     H
C       0.2368   0.2983  0.81511     C
C       0.2368   0.9385  0.01822     C
H       0.2397   0.5972   0.9821     H
H       0.2397   0.6425  0.85123     H
C      0.24006  0.38988  0.27035     C
C      0.24006  0.85018  0.56298     C
C      0.24466  0.58641  0.18979     C
C      0.24466  0.65825  0.64355     C
N      0.25257  0.45393  0.03585     N
N      0.25257  0.79864  0.79748     N
C       0.2572   0.2835   0.0936     C
C       0.2572   0.9737  0.73974     C
H       0.2619   0.2659  0.81573     H
H       0.2619    0.996   0.0176     H
C      0.26367   0.5664  0.99174     C
C      0.26367  0.69727  0.84159     C
H       0.2659    0.004  0.64907     H
H       0.2659   0.2619  0.18427     H
C      0.26713   0.6104  0.61102     C
C      0.26713  0.65673  0.22232     C
O       0.2683  0.33848  0.12007     O
O       0.2683  0.92982  0.71327     O
O      0.27134  0.05994  0.89269     O
O      0.27134   0.2114  0.94064     O
C      0.27261  0.63145  0.55905     C
C      0.27261  0.64116  0.27429     C
C      0.27945   0.5008   0.1458     C
C      0.27945  0.77865  0.68754     C
C       0.2835   0.0263  0.92693     C
C       0.2835   0.2572   0.9064     C
H        0.289    0.516   0.6735     H
H        0.289    0.773  0.15983     H
H       0.2908   0.4285  0.35643     H
H       0.2908   0.8623   0.4769     H
H       0.2939   0.0865  0.79977     H
H       0.2939   0.2074  0.03357     H
H       0.2972   0.6056  0.27747     H
H       0.2972   0.6916  0.55587     H
C      0.29779   0.0665  0.73359     C
C      0.29779  0.23129  0.09975     C
C       0.2983   0.0615  0.64845     C
C       0.2983   0.2368  0.18489     C
C      0.30273   0.5664  0.17493     C
C      0.30273  0.73633  0.65841     C
H       0.3054   0.0706  0.58117     H
H       0.3054   0.2348  0.25217     H
H       0.3084   0.6056   0.8892     H
H       0.3084   0.7028  0.94413     H
C       0.3131   0.1126  0.77196     C
C       0.3131   0.2005  0.06138     C
H       0.3195   0.4883  0.13607     H
H       0.3195   0.8312  0.69727     H
H       0.3199   0.5507   0.5509     H
H       0.3199   0.7692  0.28243     H
C       0.3219   0.1012  0.60796     C
C       0.3219   0.2207  0.22538     C
C        0.322  0.10601  0.68999     C
C        0.322  0.21599  0.14335     C
C      0.32672   0.4723  0.02127     C
C      0.32672  0.85442  0.81206     C
C      0.33275  0.44509  0.26838     C
C      0.33275  0.88766  0.56495     C
O      0.33848  0.07018   0.9534     O
O      0.33848   0.2683  0.87993     O
C      0.34175  0.58641  0.97688     C
C      0.34175  0.75534  0.85645     C
C      0.34327   0.6104  0.55565     C
C      0.34327  0.73287  0.27768     C
C       0.3451   0.5332  0.67062     C
C       0.3451   0.8119  0.16271     C
H       0.3484   0.4394   0.0308     H
H       0.3484    0.909  0.80253     H
H       0.3487   0.4631   0.7209     H
H       0.3487   0.8856  0.11243     H
H       0.3513   0.4913   0.8869     H
H       0.3513     0.86  0.94643     H
H       0.3575   0.5972  0.18457     H
H       0.3575   0.7603  0.64877     H
C      0.35785  0.15817  0.06361     C
C      0.35785  0.19968  0.76973     C
C      0.35884  0.63145  0.60762     C
C      0.35884  0.72739  0.22571     C
Zn     0.35933  0.17966  0.91667    Zn
H       0.3658   0.1354  0.03727     H
H       0.3658   0.2304  0.79607     H
C      0.36855  0.64116  0.89238     C
C      0.36855  0.72739  0.94095     C
O      0.36941  0.50608  0.29363     O
O      0.36941  0.86333   0.5397     O
C      0.37069   0.1763  0.14514     C
C      0.37069  0.19439   0.6882     C
O      0.37088  0.42775  0.23915     O
O      0.37088  0.94313  0.59418     O
C       0.3713   0.1829  0.22729     C
C       0.3713   0.1884  0.60605     C
C      0.37399   0.5381  0.99245     C
C      0.37399  0.83589  0.84088     C
C       0.3817   0.5018   0.6992     C
C       0.3817   0.8799  0.13413     C
H       0.3873   0.1722  0.25517     H
H       0.3873   0.2151  0.57817     H
C      0.38852  0.52542  0.86491     C
C      0.38852   0.8631  0.96842     C
C       0.3896  0.65673  0.94435     C
C       0.3896  0.73287  0.88898     C
C      0.38988  0.14982  0.10369     C
C      0.38988  0.24006  0.72965     C
C      0.39272  0.59024  0.63754     C
C      0.39272  0.80248  0.19579     C
H       0.3944   0.6916   0.6108     H
H       0.3944   0.7028  0.22253     H
C       0.3953   0.1619  0.18819     C
C       0.3953   0.2334  0.64515     C
H       0.4028   0.6425  0.31543     H
H       0.4028   0.7603   0.5179     H
H       0.4069   0.4374    0.837     H
H       0.4069   0.9695  0.99633     H
C      0.40976  0.60728  0.86246     C
C      0.40976  0.80248  0.97087     C
C      0.41359  0.65825  0.52312     C
C      0.41359  0.75534  0.31021     C
C      0.42242  0.49312  0.83472     C
C      0.42242   0.9293  0.99861     C
H       0.4268   0.5498   0.9837     H
H       0.4268    0.877  0.84963     H
O      0.42775  0.05687  0.07249     O
O      0.42775  0.37088  0.76085     O
H       0.4285   0.1377  0.18977     H
H       0.4285   0.2908  0.64357     H
C       0.4336  0.69727  0.32507     C
C       0.4336  0.73633  0.50826     C
H       0.4374   0.0305  0.67033     H
H       0.4374   0.4069    0.163     H
H       0.4394    0.091  0.86413     H
H       0.4394   0.3484   0.9692     H
C      0.44509  0.11234  0.10172     C
C      0.44509  0.33275  0.73162     C
H       0.4493   0.6801   0.9491     H
H       0.4493   0.7692  0.88423     H
H       0.4502   0.5732   0.5163     H
H       0.4502    0.877  0.31703     H
N      0.45393  0.20136  0.86918     N
N      0.45393  0.25257  0.96415     N
N      0.46129  0.52408  0.69733     N
N      0.46129  0.93721    0.136     N
C       0.4619  0.62601  0.50755     C
C       0.4619  0.83589  0.32578     C
H       0.4631   0.1144  0.55423     H
H       0.4631   0.3487   0.2791     H
C       0.4668   0.6549  0.82938     C
C       0.4668   0.8119  0.00395     C
C       0.4723  0.14558   0.8546     C
C       0.4723  0.32672  0.97873     C
C      0.47458  0.61148  0.63509     C
C      0.47458   0.8631  0.19824     C
N      0.47592  0.53871  0.80267     N
N      0.47592  0.93721  0.03066     N
H        0.484    0.711   0.8265     H
H        0.484    0.773  0.00683     H
Zn     0.48712  0.51288     0.25    Zn
Zn     0.48712  0.97424  0.58333    Zn
H       0.4883   0.1688   0.9694     H
H       0.4883   0.3195  0.86393     H
H       0.4913     0.14  0.72023     H
H       0.4913   0.3513   0.1131     H
C      0.49312   0.0707  0.66805     C
C      0.49312  0.42242  0.16528     C
O      0.49392  0.63059  0.20637     O
O      0.49392  0.86333  0.62697     O
C       0.4982   0.6183   0.8008     C
C       0.4982   0.8799  0.03253     C
C       0.4992  0.72055   0.3542     C
C       0.4992  0.77865  0.47913     C
C       0.5008  0.22135  0.97913     C
C       0.5008  0.27945   0.8542     C
C       0.5018   0.1201  0.53253     C
C       0.5018   0.3817   0.3008     C
O      0.50608  0.13667  0.12697     O
O      0.50608  0.36941  0.70637     O
C      0.50688  0.57758  0.66528     C
C      0.50688   0.9293  0.16805     C
H       0.5087   0.6487   0.6131     H
H       0.5087     0.86  0.22023     H
H       0.5117   0.6805  0.36393     H
H       0.5117   0.8312   0.4694     H
Zn     0.51288  0.02576  0.08333    Zn
Zn     0.51288  0.48712     0.75    Zn
H        0.516    0.227  0.50683     H
H        0.516    0.289   0.3265     H
N      0.52408  0.06279  0.53066     N
N      0.52408  0.46129  0.30267     N
C      0.52542   0.1369  0.69824     C
C      0.52542  0.38852  0.13509     C
C       0.5277  0.67328  0.47873     C
C       0.5277  0.85442   0.3546     C
C       0.5332   0.1881  0.50395     C
C       0.5332   0.3451  0.32938     C
H       0.5369   0.6513   0.7791     H
H       0.5369   0.8856  0.05423     H
C       0.5381  0.16411  0.82578     C
C       0.5381  0.37399  0.00755     C
N      0.53871  0.06279    0.636     N
N      0.53871  0.47592  0.19733     N
N      0.54607  0.74743  0.46415     N
N      0.54607  0.79864  0.36918     N
H       0.5498    0.123  0.81703     H
H       0.5498   0.4268   0.0163     H
H       0.5507   0.2308  0.38423     H
H       0.5507   0.3199   0.4491     H
C      0.55491  0.66725  0.23162     C
C      0.55491  0.88766  0.60172     C
H       0.5606   0.6516   0.4692     H
H       0.5606    0.909  0.36413     H
H       0.5626   0.5931    0.663     H
H       0.5626   0.9695  0.17033     H
C       0.5664  0.26367  0.00826     C
C       0.5664  0.30273  0.82507     C
H       0.5715   0.7092  0.14357     H
H       0.5715   0.8623  0.68977     H
O      0.57225  0.62912  0.26085     O
O      0.57225  0.94313  0.57249     O
H       0.5732    0.123  0.34963     H
H       0.5732   0.4502   0.4837     H
C      0.57758   0.0707  0.49861     C
C      0.57758  0.50688  0.33472     C
C      0.58641  0.24466  0.81021     C
C      0.58641  0.34175  0.02312     C
C      0.59024  0.19752  0.47087     C
C      0.59024  0.39272  0.36246     C
H       0.5931   0.0305  0.49633     H
H       0.5931   0.5626    0.337     H
H       0.5972   0.2397   0.0179     H
H       0.5972   0.3575  0.81543     H
C       0.6047   0.7666  0.14515     C
C       0.6047   0.8381  0.68819     C
H       0.6056   0.2972  0.72253     H
H       0.6056   0.3084   0.1108     H
C      0.60728  0.19752  0.69579     C
C      0.60728  0.40976  0.13754     C
C      0.61012  0.75994  0.22965     C
C      0.61012  0.85018  0.60369     C
C       0.6104  0.26713  0.38898     C
C       0.6104  0.34327  0.44435     C
C      0.61148   0.1369  0.46842     C
C      0.61148  0.47458  0.36491     C
H       0.6127   0.7849  0.07817     H
H       0.6127   0.8278  0.75517     H
C       0.6183   0.1201  0.63413     C
C       0.6183   0.4982   0.1992     C
C      0.62601  0.16411  0.34088     C
C      0.62601   0.4619  0.49245     C
C       0.6287   0.8116  0.10605     C
C       0.6287   0.8171  0.72729     C
O      0.62912  0.05687  0.09418     O
O      0.62912  0.57225  0.73915     O
C      0.62931  0.80561   0.1882     C
C      0.62931   0.8237  0.64514     C
O      0.63059  0.13667   0.0397     O
O      0.63059  0.49392  0.79363     O
C      0.63145  0.27261  0.44095     C
C      0.63145  0.35884  0.39238     C
H       0.6342   0.7696  0.29607     H
H       0.6342   0.8646  0.53727     H
Zn     0.64067  0.82034  0.41667    Zn
C      0.64116  0.27261  0.72571     C
C      0.64116  0.36855  0.10762     C
C      0.64215  0.80032  0.26973     C
C      0.64215  0.84183  0.56361     C
H       0.6425   0.2397  0.14877     H
H       0.6425   0.4028  0.68457     H
H       0.6487     0.14  0.44643     H
H       0.6487   0.5087   0.3869     H
H       0.6513   0.1144  0.61243     H
H       0.6513   0.5369   0.2209     H
H       0.6516    0.091  0.30253     H
H       0.6516   0.5606   0.5308     H
C       0.6549   0.1881  0.66271     C
C       0.6549   0.4668  0.17062     C
C      0.65673  0.26713  0.77768     C
C      0.65673   0.3896  0.05565     C
C      0.65825  0.24466  0.35645     C
C      0.65825  0.41359  0.47688     C
O      0.66152   0.7317  0.37993     O
O      0.66152  0.92982   0.4534     O
C      0.66725  0.11234  0.06495     C
C      0.66725  0.55491  0.76838     C
C      0.67328  0.14558  0.31206     C
C      0.67328   0.5277  0.52127     C
C        0.678  0.78401  0.64335     C
C        0.678  0.89399  0.18999     C
C       0.6781   0.7793  0.72538     C
C       0.6781   0.8988  0.10796     C
H       0.6801   0.2308  0.78243     H
H       0.6801   0.4493   0.0509     H
H       0.6805   0.1688  0.19727     H
H       0.6805   0.5117  0.63607     H
C       0.6869   0.7995  0.56138     C
C       0.6869   0.8874  0.27196     C
H       0.6916   0.2972  0.44413     H
H       0.6916   0.3944   0.3892     H
H       0.6946   0.7652  0.75217     H
H       0.6946   0.9294  0.08117     H
C      0.69727  0.26367  0.15841     C
C      0.69727   0.4336  0.67493     C
C       0.7017   0.7632  0.68489     C
C       0.7017   0.9385  0.14845     C
C      0.70221  0.76871  0.59975     C
C      0.70221   0.9335  0.23359     C
H       0.7028   0.3084  0.05587     H
H       0.7028   0.3944  0.77747     H
H       0.7061   0.7926  0.53357     H
H       0.7061   0.9135  0.29977     H
H       0.7092   0.1377   0.9769     H
H       0.7092   0.5715  0.85643     H
H        0.711    0.227  0.65983     H
H        0.711    0.484   0.1735     H
C       0.7165   0.7428   0.4064     C
C       0.7165   0.9737  0.42693     C
C      0.72055  0.22135  0.18754     C
C      0.72055   0.4992   0.6458     C
C      0.72739  0.35884  0.77429     C
C      0.72739  0.36855  0.05905     C
O      0.72866   0.7886  0.44064     O
O      0.72866  0.94006  0.39269     O
O       0.7317  0.07018  0.21327     O
O       0.7317  0.66152  0.62007     O
C      0.73287  0.34327  0.72232     C
C      0.73287   0.3896  0.11102     C
H       0.7341   0.7381  0.68427     H
H       0.7341    0.996  0.14907     H
C      0.73633  0.30273  0.34159     C
C      0.73633   0.4336  0.49174     C
H       0.7381    0.004   0.5176     H
H       0.7381   0.7341  0.31573     H
C       0.7428   0.0263  0.23974     C
C       0.7428   0.7165   0.5936     C
N      0.74743  0.20136  0.29748     N
N      0.74743  0.54607  0.53585     N
C      0.75534  0.34175  0.14355     C
C      0.75534  0.41359  0.68979     C
C      0.75994  0.14982  0.06298     C
C      0.75994  0.61012  0.77035     C
H       0.7603   0.3575  0.35123     H
H       0.7603   0.4028   0.4821     H
C       0.7632   0.0615  0.51822     C
C       0.7632   0.7017  0.31511     C
H       0.7652   0.0706   0.5855     H
H       0.7652   0.6946  0.24783     H
C       0.7666   0.1619  0.97848     C
C       0.7666   0.6047  0.85485     C
C      0.76871   0.0665  0.43308     C
C      0.76871  0.70221  0.40025     C
H       0.7692   0.3199  0.71757     H
H       0.7692   0.4493  0.11577     H
H       0.7696   0.1354   0.1294     H
H       0.7696   0.6342  0.70393     H
H        0.773    0.289  0.84017     H
H        0.773    0.484  0.99317     H
C      0.77865  0.27945  0.31246     C
C      0.77865   0.4992  0.52087     C
C       0.7793   0.1012  0.55871     C
C       0.7793   0.6781  0.27462     C
C      0.78401  0.10601  0.47668     C
C      0.78401    0.678  0.35665     C
H       0.7849   0.1722   0.9115     H
H       0.7849   0.6127  0.92183     H
O       0.7886  0.05994  0.27398     O
O       0.7886  0.72866  0.55936     O
H       0.7926   0.0865   0.3669     H
H       0.7926   0.7061  0.46643     H
N      0.79864  0.25257  0.20252     N
N      0.79864  0.54607  0.63082     N
C       0.7995   0.1126  0.39471     C
C       0.7995   0.6869  0.43862     C
C      0.80032  0.15817  0.10306     C
C      0.80032  0.64215  0.73027     C
C      0.80248  0.39272  0.80421     C
C      0.80248  0.40976  0.02913     C
C      0.80561   0.1763  0.02153     C
C      0.80561  0.62931   0.8118     C
C       0.8116   0.1829  0.93938     C
C       0.8116   0.6287  0.89395     C
C       0.8119   0.3451  0.83729     C
C       0.8119   0.4668  0.99605     C
C       0.8171   0.1884  0.56062     C
C       0.8171   0.6287  0.27271     C
Zn     0.82033  0.17966     0.25    Zn
Zn     0.82033  0.64066  0.58333    Zn
C       0.8237  0.19439  0.47847     C
C       0.8237  0.62931  0.35486     C
H       0.8278   0.2151   0.5885     H
H       0.8278   0.6127  0.24483     H
H       0.8312   0.3195  0.30273     H
H       0.8312   0.5117   0.5306     H
C      0.83589  0.37399  0.15912     C
C      0.83589   0.4619  0.67422     C
C       0.8381   0.2334  0.52152     C
C       0.8381   0.6047  0.31181     C
C      0.84183  0.19968  0.39694     C
C      0.84183  0.64215  0.43639     C
C      0.85018  0.24006  0.43702     C
C      0.85018  0.61012  0.39631     C
C      0.85442  0.32672  0.18794     C
C      0.85442   0.5277   0.6454     C
H         0.86   0.3513  0.05357     H
H         0.86   0.5087  0.77977     H
H       0.8623   0.2908   0.5231     H
H       0.8623   0.5715  0.31023     H
C       0.8631  0.38852  0.03158     C
C       0.8631  0.47458  0.80176     C
O      0.86333  0.36941   0.4603     O
O      0.86333  0.49392  0.37303     O
H       0.8646   0.2304   0.3706     H
H       0.8646   0.6342  0.46273     H
H        0.877   0.4268  0.15037     H
H        0.877   0.4502  0.68297     H
C       0.8799   0.3817  0.86587     C
C       0.8799   0.4982  0.96747     C
H       0.8856   0.3487  0.88757     H
H       0.8856   0.5369  0.94577     H
C       0.8874   0.2005  0.10529     C
C       0.8874   0.6869  0.72804     C
C      0.88766  0.33275  0.43505     C
C      0.88766  0.55491  0.39828     C
C      0.89399  0.21599  0.02332     C
C      0.89399    0.678  0.81001     C
C       0.8988   0.2207  0.94129     C
C       0.8988   0.6781  0.89204     C
H        0.909   0.3484  0.19747     H
H        0.909   0.5606  0.63587     H
H       0.9135   0.2074   0.1331     H
H       0.9135   0.7061  0.70023     H
C       0.9293  0.42242  0.00139     C
C       0.9293  0.50688  0.83195     C
H       0.9294   0.2348   0.9145     H
H       0.9294   0.6946  0.91883     H
O      0.92982   0.2683  0.28673     O
O      0.92982  0.66152   0.5466     O
C       0.9335  0.23129  0.06692     C
C       0.9335  0.70221  0.76641     C
N      0.93721  0.46129    0.864     N
N      0.93721  0.47592  0.96934     N
C       0.9385   0.2368  0.98178     C
C       0.9385   0.7017  0.85155     C
O      0.94006   0.2114  0.22602     O
O      0.94006  0.72866  0.60731     O
O      0.94313  0.37088  0.40582     O
O      0.94313  0.57225  0.42751     O
H       0.9695   0.4069  0.00367     H
H       0.9695   0.5626  0.82967     H
C       0.9737   0.2572  0.26026     C
C       0.9737   0.7165  0.57307     C
Zn     0.97424  0.48712  0.41667    Zn
H        0.996   0.2619   0.9824     H
H        0.996   0.7341  0.85093     H
