data_I
_chemical_name_common  '/home/zhangsd/repos/MofS-CGCNN/ML/data/WS24/clean_cifs/WOLREV'
_cell_length_a 30.70180
_cell_length_b 30.70180
_cell_length_c 30.70180
_cell_angle_alpha 109.47100
_cell_angle_beta  109.47100
_cell_angle_gamma 109.47100
_space_group_name_H-M_alt      'P 1'


loop_
_space_group_symop_operation_xyz
  'x, y, z' 

loop_
_atom_site_label
_atom_site_fract_x
_atom_site_fract_y
_atom_site_fract_z
_atom_site_type_symbol
Mn         0.0      0.0      0.0    Mn
Mn         0.0      0.5      0.0    Mn
Mn         0.0      0.5  0.13196    Mn
Mn         0.0      0.5  0.63196    Mn
N       0.0065   0.0581    0.577     N
N       0.0065   0.9484   0.9295     N
C       0.0146   0.1507   0.2303     C
C       0.0146   0.8639   0.2843     C
C       0.0157   0.1052   0.1491     C
C       0.0157   0.9105   0.3666     C
N       0.0189   0.4484   0.4419     N
N       0.0189   0.5705    0.077     N
N       0.0191   0.4491   0.4004     N
N       0.0191     0.57   0.1187     N
H       0.0225   0.1563   0.7348     H
H       0.0225   0.8662   0.7877     H
H       0.0265   0.1905    0.303     H
H       0.0265    0.836   0.2235     H
N       0.0336   0.4167   0.3799     N
N       0.0336   0.6169   0.1537     N
N       0.0342    0.416   0.4518     N
N       0.0342   0.6182   0.0824     N
N       0.0358    0.084   0.1182     N
N       0.0358   0.9518   0.4176     N
N       0.0368   0.1201   0.6537     N
N       0.0368   0.9167   0.8831     N
C       0.0425   0.1421   0.2046     C
C       0.0425   0.9004   0.3379     C
C       0.0439   0.3948   0.4105     C
C       0.0439   0.6491   0.1334     C
C        0.045   0.1862   0.2848     C
C        0.045   0.8588   0.2602     C
N       0.0482   0.0824   0.4642     N
N       0.0482   0.9658    0.084     N
N       0.0487   0.0996   0.6187     N
N       0.0487   0.9491     0.93     N
H       0.0488   0.3328   0.4494     H
H       0.0488    0.716   0.0994     H
H       0.0506   0.0994   0.3834     H
H       0.0506   0.9512   0.1672     H
N       0.0509   0.4809   0.0996     N
N       0.0509     0.57   0.4513     N
N       0.0516   0.4811   0.0581     N
N       0.0516   0.5705   0.4935     N
N       0.0581    0.077   0.5065     N
N       0.0581   0.9811   0.0516     N
C       0.0622   0.3285   0.4261     C
C       0.0622   0.7337   0.1361     C
H       0.0624   0.1429   0.3375     H
H       0.0624   0.9195   0.2249     H
C       0.0625   0.3579   0.4004     C
C       0.0625   0.7046   0.1621     C
N         0.07   0.5191   0.6187     N
N         0.07   0.5509   0.9513     N
N       0.0705   0.5189    0.577     N
N       0.0705   0.5516   0.9935     N
C       0.0739   0.1361   0.4024     C
C       0.0739   0.9378   0.1715     C
N        0.077   0.0065   0.5581     N
N        0.077   0.0705   0.0189     N
H       0.0785   0.3662   0.3437     H
H       0.0785   0.7123   0.2348     H
C       0.0796   0.3493   0.3639     C
C       0.0796   0.7303   0.2157     C
H       0.0805   0.2751   0.4376     H
C       0.0805   0.2935   0.4188     C
C       0.0805    0.787   0.1617     C
H       0.0805   0.8054   0.1429     H
C       0.0812   0.1617   0.3747     C
C       0.0812   0.9195   0.2065     C
N       0.0824   0.1182   0.0342     N
N       0.0824   0.9642   0.5482     N
N       0.0833   0.4664   0.1201     N
N       0.0833   0.6169   0.4632     N
N        0.084   0.4658   0.0482     N
N        0.084   0.6182   0.5358     N
C       0.0895   0.1334   0.4843     C
C       0.0895   0.9561   0.1052     C
C       0.0975   0.2145   0.3136     C
C       0.0975    0.883   0.2839     C
C       0.0976   0.1715   0.2337     C
C       0.0976   0.9261   0.3639     C
C       0.0986   0.3138   0.3588     C
C       0.0986   0.7848   0.2398     C
C       0.0991   0.2855    0.383     C
C       0.0991   0.8136   0.2161     C
H       0.0994    0.216   0.0488     H
H       0.0994   0.8834   0.5506     H
N       0.0996   0.1187   0.5487     N
C       0.0996   0.1621   0.4575     C
C       0.0996   0.9375   0.1421     C
N       0.0996   0.9809   0.0509     N
C       0.1052   0.4561   0.0895     C
C       0.1052   0.6491   0.5157     C
H       0.1125   0.3095    0.336     H
H       0.1125    0.803   0.2765     H
H       0.1166   0.1672    0.216     H
H       0.1166   0.9494   0.4006     H
N       0.1169   0.5336   0.6537     N
N       0.1169   0.5833   0.9632     N
C        0.117   0.2161   0.4025     C
C        0.117   0.9009   0.2145     C
N       0.1182   0.5342   0.5824     N
N       0.1182    0.584   0.0358     N
N       0.1187   0.0487   0.5996     N
N       0.1187     0.07   0.0191     N
N       0.1201   0.1537   0.5368     N
N       0.1201   0.9664   0.0833     N
C        0.125     0.25    0.375     C
C        0.125    0.875     0.25     C
C       0.1253   0.2065    0.287     C
C       0.1253   0.9188   0.3383     C
Mn     0.13196      0.0     -0.0    Mn
Mn     0.13196  0.13196  0.63196    Mn
C       0.1334   0.1491   0.0439     C
C       0.1334   0.9843   0.5895     C
H       0.1338   0.4215   0.1563     H
H       0.1338   0.7123   0.4775     H
C       0.1361   0.2157   0.4854     C
C       0.1361   0.2337   0.0622     C
C       0.1361   0.9024   0.5739     C
C       0.1361   0.9204   0.1507     C
C       0.1412   0.2398    0.455     C
C       0.1412   0.9014   0.1862     C
C       0.1421   0.4375   0.0996     C
C       0.1421   0.7046   0.5425     C
H       0.1429   0.3054   0.0805     H
H       0.1429   0.8375   0.5624     H
C       0.1491   0.5439   0.6334     C
C       0.1491   0.6052   0.0157     C
C       0.1507   0.4204   0.1361     C
C       0.1507   0.7303   0.5146     C
N       0.1537   0.0368   0.6201     N
N       0.1537   0.1169   0.0336     N
H       0.1563   0.2348   0.5225     H
H       0.1563   0.9215   0.1338     H
C       0.1617    0.287   0.0805     C
C       0.1617   0.8747   0.5812     C
C       0.1621   0.2046   0.0625     C
C       0.1621   0.9575   0.5996     C
H       0.1625   0.2249   0.3054     H
H       0.1625   0.9376   0.3571     H
H        0.164   0.2765   0.4735     H
H        0.164   0.8875   0.1905     H
H       0.1672   0.4512   0.0506     H
H       0.1672    0.716   0.6166     H
C       0.1715   0.4378   0.0739     C
C       0.1715   0.7337   0.5976     C
C       0.1862   0.4014   0.1412     C
C       0.1862   0.7848    0.545     C
C       0.1864   0.2839   0.4009     C
C       0.1864   0.9025   0.2855     C
H       0.1905   0.3875    0.164     H
H       0.1905    0.803   0.5265     H
H       0.1946   0.3571   0.4195     H
H       0.1946   0.8375   0.2751     H
H        0.197   0.2235   0.3875     H
H        0.197   0.9735   0.3095     H
C       0.2046   0.5625   0.6621     C
C       0.2046   0.6421   0.0425     C
C       0.2065   0.4195   0.0812     C
C       0.2065    0.787   0.6253     C
H       0.2123   0.5785   0.7348     H
H       0.2123   0.6338   0.9775     H
C        0.213   0.3383   0.4195     C
C        0.213   0.8747   0.2935     C
C       0.2145   0.4009    0.117     C
C       0.2145   0.8136   0.5975     C
C       0.2152   0.2602   0.4014     C
C       0.2152    0.955   0.3138     C
C       0.2157   0.2303   0.0796     C
C       0.2157   0.9854   0.6361     C
H        0.216   0.5488   0.5994     H
H        0.216   0.6672   0.1166     H
C       0.2161   0.3136   0.0991     C
C       0.2161   0.9025    0.617     C
H       0.2235    0.336   0.0265     H
H       0.2235   0.8875    0.697     H
H       0.2249   0.4195   0.0624     H
H       0.2249   0.8054   0.6625     H
C       0.2303   0.5796   0.7157     C
C       0.2303   0.6507   0.0146     C
C       0.2337   0.5622   0.6361     C
C       0.2337   0.6715   0.0976     C
H       0.2348   0.0225   0.6563     H
H       0.2348   0.2123   0.0785     H
C       0.2398   0.2848   0.0986     C
C       0.2398    0.955   0.6412     C
C         0.25    0.375    0.125     C
C         0.25    0.875    0.625     C
C       0.2602   0.3588    0.045     C
C       0.2602   0.9014   0.7152     C
H       0.2652   0.3437   0.9775     H
H       0.2652   0.9215   0.7877     H
C       0.2663   0.3639   0.4378     C
C       0.2663   0.9024   0.3285     C
C       0.2697   0.2843   0.4204     C
C       0.2697   0.9854   0.3493     C
H       0.2751   0.3375   0.1946     H
H       0.2751   0.9376   0.5805     H
H       0.2765    0.303   0.1125     H
H       0.2765   0.9735    0.664     H
C       0.2839    0.383   0.0975     C
C       0.2839   0.9009   0.6864     C
H        0.284   0.4006   0.4512     H
H        0.284   0.8834   0.3328     H
C       0.2843   0.3639   0.0146     C
C       0.2843   0.9204   0.7697     C
C       0.2848   0.5986   0.7398     C
C       0.2848   0.6862    0.045     C
C       0.2855   0.4025   0.1864     C
C       0.2855    0.883   0.5991     C
C        0.287   0.5805   0.6617     C
C        0.287   0.7065   0.1253     C
H       0.2877   0.0225   0.3662     H
H       0.2877   0.2652   0.4215     H
C       0.2935   0.3747    0.213     C
C       0.2935   0.9188   0.5805     C
C       0.2954   0.3379   0.4375     C
C       0.2954   0.9575   0.3579     C
H        0.303   0.6125   0.7765     H
H        0.303   0.6905   0.0265     H
H       0.3054   0.5805   0.6429     H
H       0.3054   0.7249   0.1625     H
H       0.3095   0.4735    0.197     H
H       0.3095    0.836   0.6125     H
C       0.3136   0.5991   0.7161     C
C       0.3136   0.7145   0.0975     C
C       0.3138    0.455   0.2152     C
C       0.3138   0.8588   0.5986     C
C       0.3285   0.4024   0.2663     C
C       0.3285   0.9261   0.5622     C
H       0.3328   0.3834    0.284     H
H       0.3328   0.9494   0.5488     H
H        0.336   0.5265   0.7235     H
H        0.336   0.8095   0.1125     H
H       0.3375   0.6429   0.0624     H
H       0.3375   0.6946   0.7751     H
C       0.3379   0.4004   0.0425     C
C       0.3379   0.9375   0.7954     C
C       0.3383   0.4188   0.1253     C
C       0.3383   0.9195    0.713     C
H       0.3437   0.4775   0.7652     H
H       0.3437   0.8662   0.0785     H
N       0.3463   0.3799   0.9632     N
N       0.3463   0.9664   0.8831     N
C       0.3493   0.4854   0.2697     C
C       0.3493   0.8639   0.5796     C
C       0.3509   0.3666   0.4561     C
C       0.3509   0.9843   0.3948     C
H       0.3571   0.4376   0.1625     H
H       0.3571   0.9195   0.6946     H
C       0.3579   0.4575   0.2954     C
C       0.3579   0.9004   0.5625     C
C       0.3588    0.545   0.7602     C
C       0.3588   0.8138   0.0986     C
C       0.3639   0.4261   0.0976     C
C       0.3639   0.5146   0.7843     C
C       0.3639   0.8493   0.0796     C
C       0.3639   0.9378   0.7663     C
H       0.3662   0.5225   0.2877     H
H       0.3662   0.8437   0.5785     H
C       0.3666   0.4105   0.0157     C
C       0.3666   0.9561   0.8509     C
Mn     0.36804      0.0     -0.0    Mn
Mn     0.36804  0.36804  0.86804    Mn
C       0.3747   0.6617   0.0812     C
C       0.3747    0.713   0.7935     C
C        0.375    0.625     0.75     C
C        0.375     0.75    0.125     C
N       0.3799   0.4632   0.8463     N
N       0.3799   0.9167   0.0336     N
N       0.3813   0.4004   0.9513     N
N       0.3813   0.9809     0.93     N
N       0.3818   0.4176   0.4658     N
N       0.3818   0.9642    0.416     N
C        0.383   0.5975   0.7839     C
C        0.383   0.7855   0.0991     C
N       0.3831   0.0368   0.4167     N
N       0.3831   0.3463   0.4664     N
H       0.3834   0.5994   0.0506     H
H       0.3834    0.784   0.8328     H
H       0.3875    0.664   0.6905     H
H       0.3875   0.7235    0.197     H
C       0.3948   0.4843   0.3509     C
C       0.3948   0.9105   0.5439     C
N       0.4004   0.4513   0.8813     N
C       0.4004   0.5425   0.8379     C
C       0.4004   0.8579   0.0625     C
N       0.4004   0.9491   0.0191     N
H       0.4006   0.4494   0.1166     H
H       0.4006   0.9512    0.784     H
C       0.4009    0.617   0.7145     C
C       0.4009   0.7839   0.1864     C
C       0.4014   0.6412   0.6862     C
C       0.4014   0.7602   0.2152     C
C       0.4024   0.6361   0.0739     C
C       0.4024   0.7663   0.8285     C
C       0.4025   0.6864   0.7855     C
C       0.4025   0.7161    0.117     C
C       0.4105   0.5157   0.8666     C
C       0.4105   0.8948   0.0439     C
N        0.416   0.4642   0.3818     N
N        0.416   0.9518   0.5342     N
N       0.4167   0.5368   0.3831     N
N       0.4167   0.8799   0.5336     N
N       0.4176   0.4518   0.0358     N
N       0.4176   0.9658   0.8818     N
C       0.4188   0.6253   0.8383     C
C       0.4188   0.7935   0.0805     C
H       0.4195   0.5624   0.7249     H
C       0.4195   0.5812   0.7065     C
C       0.4195   0.8383    0.213     C
H       0.4195   0.8571   0.1946     H
C       0.4204   0.6361   0.6507     C
C       0.4204   0.7843   0.2697     C
H       0.4215   0.6563   0.6338     H
H       0.4215   0.7652   0.2877     H
N        0.423   0.4419   0.9935     N
N        0.423   0.9811   0.9295     N
C       0.4261   0.5976   0.8639     C
C       0.4261   0.8285   0.0622     C
N       0.4295   0.0065   0.4484     N
N       0.4295    0.423   0.4811     N
N         0.43   0.0487   0.4491     N
N         0.43   0.3813   0.4809     N
C       0.4375   0.5996   0.6421     C
C       0.4375   0.8379   0.2954     C
H       0.4376   0.6625   0.8571     H
H       0.4376   0.7751   0.0805     H
C       0.4378   0.5739   0.6715     C
C       0.4378   0.8639   0.2663     C
N       0.4419   0.4935    0.923     N
N       0.4419   0.9484   0.0189     N
N       0.4484   0.5065   0.4295     N
N       0.4484   0.9419   0.5189     N
N       0.4491   0.5487     0.43     N
N       0.4491   0.9004   0.5191     N
H       0.4494   0.6166   0.9006     H
H       0.4494   0.8328   0.0488     H
H       0.4512   0.5506   0.6672     H
H       0.4512   0.9006    0.284     H
N       0.4513     0.07   0.0509     N
N       0.4513   0.3813   0.9004     N
N       0.4518   0.5358   0.9176     N
N       0.4518    0.916   0.0342     N
C        0.455   0.7152   0.8138     C
C        0.455   0.7398   0.1412     C
C       0.4561   0.5895   0.6052     C
C       0.4561   0.8666   0.3509     C
C       0.4575   0.6621   0.0996     C
C       0.4575   0.7954   0.8579     C
N       0.4632   0.1169   0.0833     N
N       0.4632   0.3463   0.8799     N
N       0.4642   0.5824   0.0482     N
N       0.4642   0.8818    0.916     N
N       0.4658   0.5482    0.584     N
N       0.4658   0.9176   0.3818     N
N       0.4664   0.6201   0.5833     N
N       0.4664   0.8463   0.3831     N
H       0.4735    0.697   0.8095     H
H       0.4735   0.7765    0.164     H
H       0.4775   0.2123   0.1338     H
H       0.4775   0.2652   0.8437     H
N       0.4809   0.5996   0.5509     N
N       0.4809   0.8813     0.43     N
N       0.4811   0.5581   0.5516     N
N       0.4811    0.923   0.4295     N
C       0.4843   0.6334   0.0895     C
C       0.4843   0.8509   0.8948     C
C       0.4854   0.7157   0.1361     C
C       0.4854   0.7697   0.8493     C
N       0.4935   0.0705   0.0516     N
N       0.4935    0.423   0.9419     N
Mn         0.5  0.13196      0.5    Mn
Mn         0.5  0.36804      0.5    Mn
Mn         0.5      0.5      0.0    Mn
Mn         0.5      0.5      0.5    Mn
Mn         0.5  0.63196      0.5    Mn
Mn         0.5  0.86804      0.5    Mn
Mn         0.5      1.0      0.0    Mn
Mn         0.5      1.0      0.5    Mn
N       0.5065    0.577   0.0581     N
N       0.5065   0.9295   0.9484     N
C       0.5146   0.2303   0.1507     C
C       0.5146   0.2843   0.8639     C
C       0.5157   0.1491   0.1052     C
C       0.5157   0.3666   0.9105     C
N       0.5189    0.077   0.5705     N
N       0.5189   0.4419   0.4484     N
N       0.5191   0.1187     0.57     N
N       0.5191   0.4004   0.4491     N
H       0.5225   0.7348   0.1563     H
H       0.5225   0.7877   0.8662     H
H       0.5265   0.2235    0.836     H
H       0.5265    0.303   0.1905     H
N       0.5336   0.1537   0.6169     N
N       0.5336   0.3799   0.4167     N
N       0.5342   0.0824   0.6182     N
N       0.5342   0.4518    0.416     N
N       0.5358   0.1182    0.084     N
N       0.5358   0.4176   0.9518     N
N       0.5368   0.6537   0.1201     N
N       0.5368   0.8831   0.9167     N
C       0.5425   0.2046   0.1421     C
C       0.5425   0.3379   0.9004     C
C       0.5439   0.1334   0.6491     C
C       0.5439   0.4105   0.3948     C
C        0.545   0.2602   0.8588     C
C        0.545   0.2848   0.1862     C
N       0.5482    0.084   0.9658     N
N       0.5482   0.4642   0.0824     N
N       0.5487   0.6187   0.0996     N
N       0.5487     0.93   0.9491     N
H       0.5488   0.0994    0.716     H
H       0.5488   0.4494   0.3328     H
H       0.5506   0.1672   0.9512     H
H       0.5506   0.3834   0.0994     H
N       0.5509   0.0996   0.4809     N
N       0.5509   0.4513     0.57     N
N       0.5516   0.0581   0.4811     N
N       0.5516   0.4935   0.5705     N
N       0.5581   0.0516   0.9811     N
N       0.5581   0.5065    0.077     N
C       0.5622   0.1361   0.7337     C
C       0.5622   0.4261   0.3285     C
H       0.5624   0.2249   0.9195     H
H       0.5624   0.3375   0.1429     H
C       0.5625   0.1621   0.7046     C
C       0.5625   0.4004   0.3579     C
N         0.57   0.6187   0.5191     N
N         0.57   0.9513   0.5509     N
N       0.5705    0.577   0.5189     N
N       0.5705   0.9935   0.5516     N
C       0.5739   0.1715   0.9378     C
C       0.5739   0.4024   0.1361     C
N        0.577   0.0189   0.0705     N
N        0.577   0.5581   0.0065     N
H       0.5785   0.2348   0.7123     H
H       0.5785   0.3437   0.3662     H
C       0.5796   0.2157   0.7303     C
C       0.5796   0.3639   0.3493     C
H       0.5805   0.1429   0.8054     H
C       0.5805   0.1617    0.787     C
C       0.5805   0.4188   0.2935     C
H       0.5805   0.4376   0.2751     H
C       0.5812   0.2065   0.9195     C
C       0.5812   0.3747   0.1617     C
N       0.5824   0.0342   0.1182     N
N       0.5824   0.5482   0.9642     N
N       0.5833   0.1201   0.4664     N
N       0.5833   0.4632   0.6169     N
N        0.584   0.0482   0.4658     N
N        0.584   0.5358   0.6182     N
C       0.5895   0.1052   0.9561     C
C       0.5895   0.4843   0.1334     C
C       0.5975   0.2839    0.883     C
C       0.5975   0.3136   0.2145     C
C       0.5976   0.2337   0.1715     C
C       0.5976   0.3639   0.9261     C
C       0.5986   0.2398   0.7848     C
C       0.5986   0.3588   0.3138     C
C       0.5991   0.2161   0.8136     C
C       0.5991    0.383   0.2855     C
H       0.5994   0.0488    0.216     H
H       0.5994   0.5506   0.8834     H
N       0.5996   0.0509   0.9809     N
C       0.5996   0.1421   0.9375     C
C       0.5996   0.4575   0.1621     C
N       0.5996   0.5487   0.1187     N
C       0.6052   0.0895   0.4561     C
C       0.6052   0.5157   0.6491     C
H       0.6125   0.2765    0.803     H
H       0.6125    0.336   0.3095     H
H       0.6166    0.216   0.1672     H
H       0.6166   0.4006   0.9494     H
N       0.6169   0.6537   0.5336     N
N       0.6169   0.9632   0.5833     N
C        0.617   0.2145   0.9009     C
C        0.617   0.4025   0.2161     C
N       0.6182   0.0358    0.584     N
N       0.6182   0.5824   0.5342     N
N       0.6187   0.0191     0.07     N
N       0.6187   0.5996   0.0487     N
N       0.6201   0.0833   0.9664     N
N       0.6201   0.5368   0.1537     N
C        0.625     0.25    0.875     C
C        0.625    0.375     0.25     C
C       0.6253    0.287   0.2065     C
C       0.6253   0.3383   0.9188     C
Mn     0.63196      0.0     -0.0    Mn
Mn     0.63196  0.63196  0.13196    Mn
C       0.6334   0.0439   0.1491     C
C       0.6334   0.5895   0.9843     C
H       0.6338   0.1563   0.4215     H
H       0.6338   0.4775   0.7123     H
C       0.6361   0.0622   0.2337     C
C       0.6361   0.1507   0.9204     C
C       0.6361   0.4854   0.2157     C
C       0.6361   0.5739   0.9024     C
C       0.6412   0.1862   0.9014     C
C       0.6412    0.455   0.2398     C
C       0.6421   0.0996   0.4375     C
C       0.6421   0.5425   0.7046     C
H       0.6429   0.0805   0.3054     H
H       0.6429   0.5624   0.8375     H
C       0.6491   0.0157   0.6052     C
C       0.6491   0.6334   0.5439     C
C       0.6507   0.1361   0.4204     C
C       0.6507   0.5146   0.7303     C
N       0.6537   0.0336   0.1169     N
N       0.6537   0.6201   0.0368     N
H       0.6563   0.1338   0.9215     H
H       0.6563   0.5225   0.2348     H
C       0.6617   0.0805    0.287     C
C       0.6617   0.5812   0.8747     C
C       0.6621   0.0625   0.2046     C
C       0.6621   0.5996   0.9575     C
H       0.6625   0.3054   0.2249     H
H       0.6625   0.3571   0.9376     H
H        0.664   0.1905   0.8875     H
H        0.664   0.4735   0.2765     H
H       0.6672   0.0506   0.4512     H
H       0.6672   0.6166    0.716     H
C       0.6715   0.0739   0.4378     C
C       0.6715   0.5976   0.7337     C
C       0.6862   0.1412   0.4014     C
C       0.6862    0.545   0.7848     C
C       0.6864   0.2855   0.9025     C
C       0.6864   0.4009   0.2839     C
H       0.6905    0.164   0.3875     H
H       0.6905   0.5265    0.803     H
H       0.6946   0.2751   0.8375     H
H       0.6946   0.4195   0.3571     H
H        0.697   0.3095   0.9735     H
H        0.697   0.3875   0.2235     H
C       0.7046   0.0425   0.6421     C
C       0.7046   0.6621   0.5625     C
C       0.7065   0.0812   0.4195     C
C       0.7065   0.6253    0.787     C
H       0.7123   0.7348   0.5785     H
H       0.7123   0.9775   0.6338     H
C        0.713   0.2935   0.8747     C
C        0.713   0.4195   0.3383     C
C       0.7145    0.117   0.4009     C
C       0.7145   0.5975   0.8136     C
C       0.7152   0.3138    0.955     C
C       0.7152   0.4014   0.2602     C
C       0.7157   0.0796   0.2303     C
C       0.7157   0.6361   0.9854     C
H        0.716   0.1166   0.6672     H
H        0.716   0.5994   0.5488     H
C       0.7161   0.0991   0.3136     C
C       0.7161    0.617   0.9025     C
H       0.7235   0.0265    0.336     H
H       0.7235    0.697   0.8875     H
H       0.7249   0.0624   0.4195     H
H       0.7249   0.6625   0.8054     H
C       0.7303   0.0146   0.6507     C
C       0.7303   0.7157   0.5796     C
C       0.7337   0.0976   0.6715     C
C       0.7337   0.6361   0.5622     C
H       0.7348   0.0785   0.2123     H
H       0.7348   0.6563   0.0225     H
C       0.7398   0.0986   0.2848     C
C       0.7398   0.6412    0.955     C
C         0.75    0.125    0.375     C
C         0.75    0.625    0.875     C
C       0.7602    0.045   0.3588     C
C       0.7602   0.7152   0.9014     C
H       0.7652   0.7877   0.9215     H
H       0.7652   0.9775   0.3437     H
C       0.7663   0.3285   0.9024     C
C       0.7663   0.4378   0.3639     C
C       0.7697   0.3493   0.9854     C
C       0.7697   0.4204   0.2843     C
H       0.7751   0.1946   0.3375     H
H       0.7751   0.5805   0.9376     H
H       0.7765   0.1125    0.303     H
H       0.7765    0.664   0.9735     H
C       0.7839   0.0975    0.383     C
C       0.7839   0.6864   0.9009     C
H        0.784   0.3328   0.8834     H
H        0.784   0.4512   0.4006     H
C       0.7843   0.0146   0.3639     C
C       0.7843   0.7697   0.9204     C
C       0.7848    0.045   0.6862     C
C       0.7848   0.7398   0.5986     C
C       0.7855   0.1864   0.4025     C
C       0.7855   0.5991    0.883     C
C        0.787   0.1253   0.7065     C
C        0.787   0.6617   0.5805     C
H       0.7877   0.3662   0.0225     H
H       0.7877   0.4215   0.2652     H
C       0.7935    0.213   0.3747     C
C       0.7935   0.5805   0.9188     C
C       0.7954   0.3579   0.9575     C
C       0.7954   0.4375   0.3379     C
H        0.803   0.0265   0.6905     H
H        0.803   0.7765   0.6125     H
H       0.8054   0.1625   0.7249     H
H       0.8054   0.6429   0.5805     H
H       0.8095    0.197   0.4735     H
H       0.8095   0.6125    0.836     H
C       0.8136   0.0975   0.7145     C
C       0.8136   0.7161   0.5991     C
C       0.8138   0.2152    0.455     C
C       0.8138   0.5986   0.8588     C
C       0.8285   0.2663   0.4024     C
C       0.8285   0.5622   0.9261     C
H       0.8328    0.284   0.3834     H
H       0.8328   0.5488   0.9494     H
H        0.836   0.1125   0.8095     H
H        0.836   0.7235   0.5265     H
H       0.8375   0.0624   0.6429     H
H       0.8375   0.7751   0.6946     H
C       0.8379   0.0425   0.4004     C
C       0.8379   0.7954   0.9375     C
C       0.8383   0.1253   0.4188     C
C       0.8383    0.713   0.9195     C
H       0.8437   0.0785   0.8662     H
H       0.8437   0.7652   0.4775     H
N       0.8463   0.8831   0.9664     N
N       0.8463   0.9632   0.3799     N
C       0.8493   0.2697   0.4854     C
C       0.8493   0.5796   0.8639     C
C       0.8509   0.3948   0.9843     C
C       0.8509   0.4561   0.3666     C
H       0.8571   0.1625   0.4376     H
H       0.8571   0.6946   0.9195     H
C       0.8579   0.2954   0.4575     C
C       0.8579   0.5625   0.9004     C
C       0.8588   0.0986   0.8138     C
C       0.8588   0.7602    0.545     C
C       0.8639   0.0796   0.8493     C
C       0.8639   0.0976   0.4261     C
C       0.8639   0.7663   0.9378     C
C       0.8639   0.7843   0.5146     C
H       0.8662   0.2877   0.5225     H
H       0.8662   0.5785   0.8437     H
C       0.8666   0.0157   0.4105     C
C       0.8666   0.8509   0.9561     C
Mn     0.86804  0.86804  0.36804    Mn
Mn     0.86804      1.0      1.0    Mn
C       0.8747   0.0812   0.6617     C
C       0.8747   0.7935    0.713     C
C        0.875    0.125     0.75     C
C        0.875     0.75    0.625     C
N       0.8799   0.0336   0.9167     N
N       0.8799   0.8463   0.4632     N
N       0.8813     0.93   0.9809     N
N       0.8813   0.9513   0.4004     N
N       0.8818    0.416   0.9642     N
N       0.8818   0.4658   0.4176     N
C        0.883   0.0991   0.7855     C
C        0.883   0.7839   0.5975     C
N       0.8831   0.4167   0.0368     N
N       0.8831   0.4664   0.3463     N
H       0.8834   0.0506   0.5994     H
H       0.8834   0.8328    0.784     H
H       0.8875    0.197   0.7235     H
H       0.8875   0.6905    0.664     H
C       0.8948   0.3509   0.4843     C
C       0.8948   0.5439   0.9105     C
N       0.9004   0.0191   0.9491     N
C       0.9004   0.0625   0.8579     C
C       0.9004   0.8379   0.5425     C
N       0.9004   0.8813   0.4513     N
H       0.9006   0.1166   0.4494     H
H       0.9006    0.784   0.9512     H
C       0.9009   0.1864   0.7839     C
C       0.9009   0.7145    0.617     C
C       0.9014   0.2152   0.7602     C
C       0.9014   0.6862   0.6412     C
C       0.9024   0.0739   0.6361     C
C       0.9024   0.8285   0.7663     C
C       0.9025    0.117   0.7161     C
C       0.9025   0.7855   0.6864     C
C       0.9105   0.0439   0.8948     C
C       0.9105   0.8666   0.5157     C
N        0.916   0.3818   0.4642     N
N        0.916   0.5342   0.9518     N
N       0.9167   0.3831   0.5368     N
N       0.9167   0.5336   0.8799     N
N       0.9176   0.0358   0.4518     N
N       0.9176   0.8818   0.9658     N
C       0.9188   0.0805   0.7935     C
C       0.9188   0.8383   0.6253     C
H       0.9195   0.1946   0.8571     H
C       0.9195    0.213   0.8383     C
C       0.9195   0.7065   0.5812     C
H       0.9195   0.7249   0.5624     H
C       0.9204   0.2697   0.7843     C
C       0.9204   0.6507   0.6361     C
H       0.9215   0.2877   0.7652     H
H       0.9215   0.6338   0.6563     H
N        0.923   0.9295   0.9811     N
N        0.923   0.9935   0.4419     N
C       0.9261   0.0622   0.8285     C
C       0.9261   0.8639   0.5976     C
N       0.9295   0.4484   0.0065     N
N       0.9295   0.4811    0.423     N
N         0.93   0.4491   0.0487     N
N         0.93   0.4809   0.3813     N
C       0.9375   0.2954   0.8379     C
C       0.9375   0.6421   0.5996     C
H       0.9376   0.0805   0.7751     H
H       0.9376   0.8571   0.6625     H
C       0.9378   0.2663   0.8639     C
C       0.9378   0.6715   0.5739     C
N       0.9419   0.0189   0.9484     N
N       0.9419    0.923   0.4935     N
N       0.9484   0.4295   0.5065     N
N       0.9484   0.5189   0.9419     N
N       0.9491     0.43   0.5487     N
N       0.9491   0.5191   0.9004     N
H       0.9494   0.0488   0.8328     H
H       0.9494   0.9006   0.6166     H
H       0.9512    0.284   0.9006     H
H       0.9512   0.6672   0.5506     H
N       0.9513   0.0509     0.07     N
N       0.9513   0.9004   0.3813     N
N       0.9518   0.0342    0.916     N
N       0.9518   0.9176   0.5358     N
C        0.955   0.1412   0.7398     C
C        0.955   0.8138   0.7152     C
C       0.9561   0.3509   0.8666     C
C       0.9561   0.6052   0.5895     C
C       0.9575   0.0996   0.6621     C
C       0.9575   0.8579   0.7954     C
N       0.9632   0.0833   0.1169     N
N       0.9632   0.8799   0.3463     N
N       0.9642   0.0482   0.5824     N
N       0.9642    0.916   0.8818     N
N       0.9658   0.3818   0.9176     N
N       0.9658    0.584   0.5482     N
N       0.9664   0.3831   0.8463     N
N       0.9664   0.5833   0.6201     N
H       0.9735    0.164   0.7765     H
H       0.9735   0.8095    0.697     H
H       0.9775   0.1338   0.2123     H
H       0.9775   0.8437   0.2652     H
N       0.9809     0.43   0.8813     N
N       0.9809   0.5509   0.5996     N
N       0.9811   0.4295    0.923     N
N       0.9811   0.5516   0.5581     N
C       0.9843   0.0895   0.6334     C
C       0.9843   0.8948   0.8509     C
C       0.9854   0.1361   0.7157     C
C       0.9854   0.8493   0.7697     C
N       0.9935   0.0516   0.0705     N
N       0.9935   0.9419    0.423     N
Mn         1.0      0.5  0.36804    Mn
Mn         1.0      0.5      0.5    Mn
Mn         1.0      0.5  0.86804    Mn
Mn         1.0      1.0      0.5    Mn
