data_I
_chemical_name_common  '/home/zhangsd/repos/MofS-CGCNN/ML/data/WS24/clean_cifs/WUSGOI'
_cell_length_a  8.89460
_cell_length_b  9.81250
_cell_length_c 12.25070
_cell_angle_alpha 81.74200
_cell_angle_beta  71.83100
_cell_angle_gamma 72.82700
_space_group_name_H-M_alt      'P 1'


loop_
_space_group_symop_operation_xyz
  'x, y, z' 

loop_
_atom_site_label
_atom_site_fract_x
_atom_site_fract_y
_atom_site_fract_z
_atom_site_type_symbol
C       0.0565   0.5344   0.5175     C
O       0.0586     0.33   0.8534     O
Mn     0.06114  0.65946  0.28274    Mn
O       0.0822    0.493   0.6134     O
O        0.112   0.6267   0.4478     O
O       0.1498   0.3248   0.1261     O
C       0.1696   0.2204   0.8607     C
O       0.1777   0.8269   0.2137     O
O       0.1789   0.1665   0.6727     O
H       0.1943   0.2727    0.072     H
O       0.2317   0.1783   0.9413     O
O       0.2385   0.2536   0.3066     O
C       0.2405   0.1239   0.7542     C
O       0.2538   0.9911   0.3183     O
O       0.2596   0.4861   0.2028     O
H       0.2597   0.1675   0.2998     H
P      0.28144  0.33096  0.18534     P
P      0.31183  0.88668  0.22376     P
O       0.3514   0.0129   0.7596     O
O       0.3916   0.9548   0.1071     O
Mn     0.40124  0.95431  0.92639    Mn
O        0.449   0.7598   0.2597     O
O       0.4514   0.2575   0.1135     O
H       0.4882   0.7008   0.2103     H
H       0.5118   0.2992   0.7897     H
O       0.5486   0.7425   0.8865     O
O        0.551   0.2402   0.7403     O
Mn     0.59876  0.04569  0.07361    Mn
O       0.6084   0.0452   0.8929     O
O       0.6486   0.9871   0.2404     O
P      0.68817  0.11332  0.77624     P
P      0.71856  0.66904  0.81466     P
H       0.7403   0.8325   0.7002     H
O       0.7404   0.5139   0.7972     O
O       0.7462   0.0089   0.6817     O
C       0.7595   0.8761   0.2458     C
O       0.7615   0.7464   0.6934     O
O       0.7683   0.8217   0.0587     O
H       0.8057   0.7273    0.928     H
O       0.8211   0.8335   0.3273     O
O       0.8223   0.1731   0.7863     O
C       0.8304   0.7796   0.1393     C
O       0.8502   0.6752   0.8739     O
O        0.888   0.3733   0.5522     O
O       0.9178    0.507   0.3866     O
Mn     0.93886  0.34054  0.71726    Mn
O       0.9414     0.67   0.1466     O
C       0.9435   0.4656   0.4825     C
