data_I
_chemical_name_common  '/home/zhangsd/repos/MofS-CGCNN/ML/data/WS24/clean_cifs/XICXAK'
_cell_length_a  7.71030
_cell_length_b 17.44890
_cell_length_c 18.09940
_cell_angle_alpha 85.99900
_cell_angle_beta  89.11200
_cell_angle_gamma 83.65000
_space_group_name_H-M_alt      'P 1'


loop_
_space_group_symop_operation_xyz
  'x, y, z' 

loop_
_atom_site_label
_atom_site_fract_x
_atom_site_fract_y
_atom_site_fract_z
_atom_site_type_symbol
O       0.0048  0.13159  0.44117     O
C       0.0093  0.52119  0.69794     C
C       0.0103  0.59085  0.21443     C
O       0.0145  0.24161  0.78541     O
C        0.021  0.96238  0.25841     C
O       0.0263  0.34302  0.90436     O
C       0.0325  0.88238  0.72787     C
O       0.0382  0.35684  0.37435     O
H       0.0429   0.9095   0.2537     H
C       0.0451  0.39142  0.31088     C
H       0.0465   0.8292   0.7242     H
C       0.0467  0.51326  0.23531     C
H        0.055   0.2005   0.8065     H
C       0.0561  0.07151    0.328     C
H       0.0676    0.589   0.5723     H
C       0.0687  0.99219  0.79833     C
H       0.0755   0.1205   0.0327     H
C        0.079  0.99204  0.32134     C
C       0.0823  0.61931  0.14083     C
N       0.0829  0.23288  0.04388     N
C       0.0916  0.36255  0.73834     C
O       0.0937  0.35869  0.25673     O
C       0.1011  0.91182  0.78901     C
O        0.105  0.10657  0.85756     O
C       0.1073  0.47321  0.64895     C
Zn     0.10967 0.702572 0.014499    Zn
H       0.1123   0.4822   0.2031     H
C       0.1166  0.03522  0.86362     C
C       0.1192  0.11076  0.39325     C
O        0.122  0.56293  0.54181     O
C       0.1289  0.15827  0.05477     C
C       0.1418   0.2779  0.75632     C
H        0.142   0.5193   0.9946     H
H       0.1453   0.8653   0.0696     H
C       0.1476  0.39535  0.67162     C
O       0.1476   0.8641   0.3812     O
H       0.1535    0.696   0.4253     H
C       0.1559  0.93702  0.38301     C
O       0.1601  0.99747    0.924     O
C       0.1749  0.49629  0.57225     C
O       0.1812  0.96702  0.44182     O
H       0.1918   0.3206   0.0902     H
C       0.1943  0.26757  0.08646     C
C       0.1977   0.5449   0.9536     C
H       0.2155   0.3639   0.6404     H
C       0.2208  0.85232  0.83441     C
N       0.2211  0.62429  0.94669     N
N       0.2224  0.67409  0.39325     N
Zn     0.22345 0.900936 0.529705    Zn
H       0.2262   0.9097   0.9096     H
H       0.2327   0.6792   0.8501     H
H       0.2358   0.7536   0.6326     H
H       0.2364   0.5621   0.4277     H
O       0.2381    0.604  0.12737     O
C       0.2554  0.83754  0.06909     C
C       0.2617  0.63268  0.87773     C
N       0.2636  0.14353  0.10212     N
H       0.2636   0.4587    0.882     H
C       0.2651   0.5115   0.8936     C
O       0.2697  0.12526  0.39484     O
O       0.2701  0.86666   0.8996     O
C       0.2703  0.59985  0.39331     C
O       0.2737  0.79234  0.80771     O
H       0.2744   0.0818   0.5483     H
O       0.2779  0.45127  0.54135     O
H       0.2846   0.7644   0.3228     H
O       0.2851  0.24639  0.74421     O
N       0.2872  0.76735  0.04764     N
H       0.2918   0.0074   0.0458     H
C       0.2979  0.71143  0.33496     C
C       0.3069  0.21368  0.12176     C
C       0.3189  0.05025   0.5887     C
N       0.3236  0.97104  0.59599     N
C       0.3264  0.74624   0.5984     C
C       0.3377   0.0043  0.09326     C
C        0.338  0.06923  0.13269     C
H       0.3435   0.6774   0.7368     H
N       0.3445  0.57382  0.84834     N
H       0.3462   0.1912   0.9076     H
H       0.3538   0.3402   0.4747     H
N       0.3579  0.79656  0.54419     N
C       0.3634   0.5685   0.9702     C
N       0.3767  0.58768  0.33527     N
C       0.3887  0.07479  0.64927     C
C       0.3927  0.62914  0.72348     C
H       0.3946   0.5552    0.021     H
C       0.3948  0.65784   0.2984     C
H       0.3962   0.2221   0.1532     H
C        0.398    0.949   0.6595     C
H       0.3998   0.1257   0.6589     H
N        0.402  0.86429  0.09034     N
H       0.4035   0.1095   0.2298     H
C       0.4073   0.5656  0.77461     C
C       0.4075  0.06545  0.20342     C
C       0.4085  0.93443  0.12715     C
H       0.4186   0.8979   0.6782     H
H       0.4345    0.459   0.4172     H
N       0.4406  0.00958  0.69413     N
N       0.4416  0.68258  0.59848     N
C       0.4452   0.5377   0.9115     C
H        0.447   0.2134   0.5341     H
C       0.4473  0.30604  0.46024     C
H       0.4529   0.4993   0.0889     H
C       0.4533  0.61872  0.65212     C
C       0.4561  0.51355  0.31533     C
H       0.4616   0.6664    0.256     H
C       0.4633  0.19287   0.9182     C
C       0.4643  0.74835  0.05503     C
H       0.4654    0.119   0.7828     H
C       0.4724  0.45243  0.36874     C
H       0.4751   0.2983   0.9568     H
C        0.483  0.99464  0.23388     C
C       0.4843  0.92836  0.19649     C
C       0.4852  0.49413  0.75638     C
H       0.4976   0.4524   0.7915     H
C       0.4995  0.23617  0.49277     C
C       0.5005  0.76383  0.50723     C
H       0.5024   0.5476   0.2085     H
C       0.5148  0.50587  0.24362     C
C       0.5157  0.07164  0.80351     C
C        0.517  0.00536  0.76612     C
H       0.5249   0.7017   0.0432     H
C       0.5276  0.54757  0.63126     C
H       0.5346    0.881   0.2172     H
C       0.5357  0.25165  0.94497     C
C       0.5367  0.80713   0.0818     C
H       0.5384   0.3336    0.744     H
C       0.5439  0.48645  0.68467     C
C       0.5467  0.38128  0.34788     C
H       0.5471   0.5007   0.9111     H
C       0.5527  0.69396  0.53976     C
H        0.553   0.7866   0.4659     H
C       0.5548   0.4623   0.0885     C
N       0.5584  0.31742  0.40152     N
N       0.5594  0.99042  0.30587     N
H       0.5655    0.541   0.5828     H
H       0.5814   0.1021   0.3218     H
C       0.5915  0.06557  0.87285     C
C       0.5925  0.93455  0.79658     C
C       0.5927   0.4344  0.22539     C
H       0.5965   0.8905   0.7702     H
N        0.598  0.13571  0.90966     N
H       0.6002   0.8743   0.3411     H
C        0.602    0.051   0.3405     C
H       0.6038   0.7779   0.8468     H
C       0.6052  0.34216   0.7016     C
H       0.6054   0.4448    0.979     H
C       0.6073  0.37086  0.27652     C
C       0.6113  0.92521  0.35073     C
N       0.6233  0.41232  0.66473     N
C       0.6366   0.4315   0.0298     C
N       0.6421  0.20344  0.45581     N
H       0.6462   0.6598   0.5253     H
H       0.6538   0.8088   0.0924     H
N       0.6555  0.42618  0.15166     N
H       0.6565   0.3226   0.2632     H
C        0.662  0.93077  0.86731     C
C       0.6623   0.9957  0.90674     C
C       0.6736  0.25376   0.4016     C
N       0.6764  0.02896  0.40401     N
C       0.6811  0.94975   0.4113     C
C       0.6931  0.78632  0.87824     C
C       0.7021  0.28857  0.66504     C
H       0.7082   0.9926   0.9542     H
N       0.7128  0.23265  0.95236     N
O       0.7149  0.75361  0.25579     O
H       0.7154   0.2356   0.6772     H
O       0.7221  0.54873  0.45865     O
H       0.7256   0.9182   0.4517     H
O       0.7263  0.20766  0.19229     O
C       0.7297  0.40015  0.60669     C
O       0.7299  0.13334   0.1004     O
O       0.7303  0.87474  0.60516     O
C       0.7349   0.4885   0.1064     C
H       0.7364   0.5413    0.118     H
N       0.7364  0.85647  0.89788     N
C       0.7383  0.36732  0.12227     C
C       0.7446  0.16246  0.93091     C
O       0.7619    0.396  0.87263     O
H       0.7636   0.4379   0.5723     H
H       0.7642   0.2464   0.3674     H
H       0.7673   0.3208   0.1499     H
H       0.7738   0.0903   0.0904     H
Zn     0.77655 0.099064 0.470295    Zn
N       0.7776  0.32591  0.60675     N
N       0.7789  0.37571  0.05331     N
C       0.7792  0.14768  0.16559     C
O       0.7826   0.1258   0.6305     O
H       0.7845   0.6361   0.3596     H
C       0.8023   0.4551   0.0464     C
C       0.8057  0.73243  0.91354     C
H       0.8082   0.6794   0.9098     H
O       0.8188  0.03298  0.55818     O
C       0.8251  0.50371  0.42775     C
O       0.8399  0.00253    0.076     O
C       0.8441  0.06298  0.61699     C
H       0.8465    0.304   0.5747     H
C       0.8524  0.60465  0.32838     C
H       0.8547   0.1347   0.9304     H
H        0.858   0.4807   0.0054     H
C       0.8582   0.7221  0.24368     C
C       0.8711  0.84173  0.94523     C
O        0.878  0.43707  0.45819     O
C       0.8808  0.88924  0.60675     C
C       0.8834  0.96478  0.13638     C
H       0.8877   0.5178   0.7969     H
Zn     0.89033 0.297428 0.985501    Zn
C       0.8927  0.52679  0.35105     C
O        0.895  0.89343  0.14244     O
C       0.8989  0.08818  0.21099     C
O       0.9063  0.64131  0.74327     O
C       0.9084  0.63745  0.26166     C
N       0.9171  0.76712  0.95612     N
C       0.9177  0.38069  0.85917     C
C        0.921  0.00796  0.67866     C
H       0.9245   0.8795   0.9673     H
C       0.9313  0.00781  0.20167     C
H       0.9324    0.411   0.4277     H
C       0.9439  0.92849    0.672     C
H        0.945   0.7995   0.1935     H
C       0.9533  0.48674  0.76469     C
H       0.9535   0.1708   0.2758     H
C       0.9549  0.60858  0.68912     C
H       0.9571   0.0905   0.7463     H
O       0.9618  0.64316  0.62565     O
C       0.9675  0.11762  0.27213     C
O       0.9737  0.65698  0.09564     O
C        0.979  0.03762  0.74159     C
O       0.9855  0.75839  0.21459     O
C       0.9897  0.40915  0.78557     C
C       0.9907  0.47881  0.30206     C
O       0.9952  0.86841  0.55883     O
