data_I
_chemical_name_common  '/home/zhangsd/repos/MofS-CGCNN/ML/data/WS24/clean_cifs/XICXUE'
_cell_length_a 11.42900
_cell_length_b 19.07580
_cell_length_c 19.07580
_cell_angle_alpha 120.00000
_cell_angle_beta  90.00000
_cell_angle_gamma 90.00000
_space_group_name_H-M_alt      'P 1'


loop_
_space_group_symop_operation_xyz
  'x, y, z' 

loop_
_atom_site_label
_atom_site_fract_x
_atom_site_fract_y
_atom_site_fract_z
_atom_site_type_symbol
N       0.0069   0.0814    0.675     N
N       0.0069    0.325   0.4064     N
N       0.0069   0.5936   0.9186     N
C       0.0127    0.483   0.1307     C
C       0.0127   0.6477    0.517     C
C       0.0127   0.8693   0.3523     C
H       0.0356   0.2007   0.5542     H
H       0.0356   0.3535   0.7993     H
H       0.0356   0.4458   0.6465     H
C       0.0397   0.2544   0.6001     C
C       0.0397   0.3457   0.7456     C
C       0.0397   0.3999   0.6543     C
H       0.0413   0.0604   0.2119     H
H       0.0413   0.1515   0.9396     H
H       0.0413   0.7881   0.8485     H
C       0.0415   0.2676    0.679     C
C       0.0415    0.321   0.5886     C
C       0.0415   0.4114   0.7324     C
N        0.044   0.2001   0.6912     N
N        0.044   0.3088   0.5089     N
N        0.044   0.4911   0.7999     N
Zn     0.05441  0.03045  0.36604    Zn
Zn     0.05441  0.33559  0.96955    Zn
Zn     0.05441  0.63396  0.66441    Zn
H       0.0633   0.5156   0.1185     H
H       0.0633   0.6029   0.4844     H
H       0.0633   0.8815   0.3971     H
O       0.0755   0.4123   0.3073     O
O       0.0755   0.6927    0.105     O
O       0.0755    0.895   0.5877     O
C       0.0819   0.1226   0.7403     C
C       0.0819   0.2597   0.3823     C
C       0.0819   0.6177   0.8774     C
C       0.1057   0.1952   0.7499     C
C       0.1057   0.2501   0.4453     C
C       0.1057   0.5547   0.8048     C
C       0.1066   0.0265   0.2069     C
C       0.1066   0.1804   0.9735     C
C       0.1066   0.7931   0.8196     C
H        0.109   0.1021   0.7742     H
H        0.109   0.2258   0.3279     H
H        0.109   0.6721   0.8979     H
O       0.1245   0.2758   0.1984     O
O       0.1245   0.8016   0.0774     O
O       0.1245   0.9226   0.7242     O
N        0.131   0.0469   0.2772     N
N        0.131   0.2303   0.9531     N
N        0.131   0.7228   0.7697     N
O       0.1415   0.4862    0.001     O
O       0.1415   0.5148   0.5138     O
O       0.1415    0.999   0.4852     O
C       0.1463   0.3622   0.2573     C
C       0.1463   0.7427   0.1049     C
C       0.1463   0.8951   0.6378     C
H       0.1537   0.1357   0.1076     H
H       0.1537   0.8924   0.0281     H
H       0.1537   0.9719   0.8643     H
O       0.1539   0.2996   0.2538     O
O       0.1539   0.7462   0.0458     O
O       0.1539   0.9542   0.7004     O
H       0.1563   0.2098    0.445     H
H       0.1563   0.2352   0.7902     H
H       0.1563    0.555   0.7648     H
O       0.1566   0.0862   0.4577     O
O       0.1566   0.3715   0.9138     O
O       0.1566   0.5423   0.6285     O
C        0.161   0.0816   0.0627     C
C        0.161   0.9373   0.0189     C
C        0.161   0.9811   0.9184     C
C       0.1618   0.0166   0.0767     C
C       0.1618   0.0601   0.9834     C
C       0.1618   0.9233   0.9399     C
N       0.1678   0.0391   0.1631     N
N       0.1678    0.124   0.9609     N
N       0.1678   0.8369    0.876     N
H       0.1833   0.0129   0.8835     H
H       0.1833   0.1165   0.1294     H
H       0.1833   0.8706   0.9871     H
N       0.1844   0.1534   0.0128     N
N       0.1844   0.8594   0.8466     N
N       0.1844   0.9872   0.1406     N
H       0.1857    0.509    0.279     H
H       0.1857    0.721     0.23     H
H       0.1857     0.77    0.491     H
C       0.1992   0.0535   0.4898     C
C       0.1992   0.4363   0.9465     C
C       0.1992   0.5102   0.5637     C
C       0.2279   0.3893   0.2089     C
C       0.2279   0.7911   0.1804     C
C       0.2279   0.8196   0.6107     C
C       0.2291   0.2775   0.0509     C
C       0.2291   0.7734   0.7225     C
C       0.2291   0.9491   0.2266     C
C       0.2448   0.0699   0.2801     C
C       0.2448   0.2102   0.9301     C
C       0.2448   0.7199   0.7898     C
C       0.2532   0.2179   0.0649     C
C       0.2532    0.847   0.7821     C
C       0.2532   0.9351    0.153     C
C       0.2545    0.476   0.2576     C
C       0.2545   0.7424   0.2184     C
C       0.2545   0.7816    0.524     C
H       0.2549     0.29   0.1029     H
H       0.2549   0.8129     0.71     H
H       0.2549   0.8971   0.1871     H
C       0.2599   0.4098   0.2598     C
C       0.2599   0.7402     0.15     C
C       0.2599     0.85   0.5902     C
C        0.268   0.0667   0.2117     C
C        0.268    0.145   0.9333     C
C        0.268   0.7883    0.855     C
H       0.2692   0.3286   0.0761     H
H       0.2692   0.7475   0.6714     H
H       0.2692   0.9239   0.2525     H
H       0.2731   0.0184   0.5994     H
H       0.2731   0.4006    0.419     H
H       0.2731    0.581   0.9816     H
H       0.2801    0.106   0.3314     H
H       0.2801   0.2254    0.894     H
H       0.2801   0.6686   0.7746     H
C       0.2829   0.3442   0.1367     C
C       0.2829   0.7925   0.6558     C
C       0.2829   0.8633   0.2075     C
C       0.2937   0.0968   0.5553     C
C       0.2937   0.4447   0.5415     C
C       0.2937   0.4585   0.9032     C
H       0.3044   0.2207   0.1061     H
H       0.3044   0.8854   0.7793     H
H       0.3044   0.8939   0.1146     H
C       0.3121   0.0659   0.6061     C
C       0.3121   0.3939   0.4598     C
C       0.3121   0.5402   0.9341     C
H       0.3275   0.1847   0.5428     H
H       0.3275   0.3581   0.8153     H
H       0.3275   0.4572   0.6419     H
H       0.3307   0.5545   0.2273     H
H       0.3307   0.6728   0.4455     H
H       0.3307   0.7727   0.3272     H
H       0.3423   0.0771   0.1952     H
H       0.3423   0.1181   0.9229     H
H       0.3423   0.8048   0.8819     H
C       0.3438   0.5064   0.2302     C
C       0.3438   0.7238   0.4936     C
C       0.3438   0.7698   0.2762     C
C       0.3456   0.1568   0.5716     C
C       0.3456   0.4148   0.8432     C
C       0.3456   0.4284   0.5852     C
C       0.3657   0.3702   0.2375     C
C       0.3657   0.7625   0.1327     C
C       0.3657   0.8673   0.6298     C
C        0.366    0.373   0.1073     C
C        0.366   0.7343    0.627     C
C        0.366   0.8927   0.2657     C
H       0.3757   0.3192   0.2355     H
H       0.3757   0.7645   0.0837     H
H       0.3757   0.9163   0.6808     H
H       0.3932   0.5097   0.4706     H
H       0.3932   0.5294   0.0391     H
H       0.3932   0.9609   0.4903     H
C       0.3975   0.1027   0.6654     C
C       0.3975   0.3346   0.4373     C
C       0.3975   0.5627   0.8973     C
C       0.3999   0.4586   0.1568     C
C       0.3999   0.6982   0.5414     C
C       0.3999   0.8432   0.3018     C
H       0.4056   0.3392   0.0571     H
H       0.4056   0.7179   0.6608     H
H       0.4056   0.9429   0.2821     H
C       0.4067   0.0179   0.5238     C
C       0.4067   0.4762   0.4941     C
C       0.4067   0.5059   0.9821     C
H       0.4073   0.0859   0.7048     H
H       0.4073   0.2952   0.3811     H
H       0.4073   0.6189   0.9141     H
C       0.4287   0.1881   0.6287     C
C       0.4287   0.3713   0.5594     C
C       0.4287   0.4406   0.8119     C
H       0.4354   0.4377   0.0096     H
H       0.4354   0.5719   0.5623     H
H       0.4354   0.9904   0.4281     H
C       0.4445   0.4674   0.2042     C
C       0.4445   0.7368   0.5326     C
C       0.4445   0.7958   0.2632     C
C       0.4558   0.1689   0.6748     C
C       0.4558   0.3252   0.4941     C
C       0.4558   0.3971    0.212     C
C       0.4558   0.5059   0.8311     C
C       0.4558    0.788   0.1851     C
C       0.4558   0.8149   0.6029     C
H        0.471   0.1697   0.3685     H
H        0.471   0.1988   0.8303     H
H        0.471   0.6315   0.8012     H
H       0.4749   0.2313   0.6315     H
H       0.4749   0.3685   0.5998     H
H       0.4749   0.4002   0.7687     H
C       0.4951   0.4902   0.1295     C
C       0.4951   0.6393   0.5098     C
C       0.4951   0.8705   0.3607     C
C        0.497   0.4685   0.0466     C
C        0.497   0.5781   0.5315     C
C        0.497   0.9534   0.4219     C
C        0.503   0.0466   0.5781     C
C        0.503   0.4219   0.4685     C
C        0.503   0.5315   0.9534     C
C       0.5049   0.1295   0.6393     C
C       0.5049   0.3607   0.4902     C
C       0.5049   0.5098   0.8705     C
H       0.5251   0.5998   0.2313     H
H       0.5251   0.6315   0.4002     H
H       0.5251   0.7687   0.3685     H
H        0.529   0.3685   0.1988     H
H        0.529   0.8012   0.1697     H
H        0.529   0.8303   0.6315     H
C       0.5442   0.1851   0.3971     C
C       0.5442    0.212   0.8149     C
C       0.5442   0.4941   0.1689     C
C       0.5442   0.6029    0.788     C
C       0.5442   0.6748   0.5059     C
C       0.5442   0.8311   0.3252     C
C       0.5555   0.2042   0.7368     C
C       0.5555   0.2632   0.4674     C
C       0.5555   0.5326   0.7958     C
H       0.5646   0.0096   0.5719     H
H       0.5646   0.4281   0.4377     H
H       0.5646   0.5623   0.9904     H
C       0.5713   0.5594   0.1881     C
C       0.5713   0.6287   0.4406     C
C       0.5713   0.8119   0.3713     C
H       0.5927   0.3811   0.0859     H
H       0.5927   0.7048   0.6189     H
H       0.5927   0.9141   0.2952     H
C       0.5933   0.4941   0.0179     C
C       0.5933   0.5238   0.5059     C
C       0.5933   0.9821   0.4762     C
H       0.5944   0.0571   0.7179     H
H       0.5944   0.2821   0.3392     H
H       0.5944   0.6608   0.9429     H
C       0.6001   0.1568   0.6982     C
C       0.6001   0.3018   0.4586     C
C       0.6001   0.5414   0.8432     C
C       0.6025   0.4373   0.1027     C
C       0.6025   0.6654   0.5627     C
C       0.6025   0.8973   0.3346     C
H       0.6068   0.0391   0.5097     H
H       0.6068   0.4706   0.9609     H
H       0.6068   0.4903   0.5294     H
H       0.6243   0.0837   0.3192     H
H       0.6243   0.2355   0.9163     H
H       0.6243   0.6808   0.7645     H
C        0.634   0.1073   0.7343     C
C        0.634   0.2657    0.373     C
C        0.634    0.627   0.8927     C
C       0.6343   0.1327   0.3702     C
C       0.6343   0.2375   0.8673     C
C       0.6343   0.6298   0.7625     C
C       0.6544   0.5716   0.4148     C
C       0.6544   0.5852   0.1568     C
C       0.6544   0.8432   0.4284     C
C       0.6562   0.2302   0.7238     C
C       0.6562   0.2762   0.5064     C
C       0.6562   0.4936   0.7698     C
H       0.6577   0.1952   0.1181     H
H       0.6577   0.8819   0.0771     H
H       0.6577   0.9229   0.8048     H
H       0.6693   0.2273   0.6728     H
H       0.6693   0.3272   0.5545     H
H       0.6693   0.4455   0.7727     H
H       0.6725   0.5428   0.3581     H
H       0.6725   0.6419   0.1847     H
H       0.6725   0.8153   0.4572     H
C        0.675   0.5222   0.4497     C
C        0.675   0.5503   0.0725     C
C        0.675   0.9275   0.4778     C
C       0.6879   0.4598   0.0659     C
C       0.6879   0.6061   0.5402     C
C       0.6879   0.9341   0.3939     C
H       0.6956   0.1061   0.8854     H
H       0.6956   0.1146   0.2207     H
H       0.6956   0.7793   0.8939     H
C       0.7171   0.1367   0.7925     C
C       0.7171   0.2075   0.3442     C
C       0.7171   0.6558   0.8633     C
H       0.7199   0.3314   0.2254     H
H       0.7199   0.7746    0.106     H
H       0.7199    0.894   0.6686     H
H       0.7269    0.419   0.0184     H
H       0.7269   0.5994    0.581     H
H       0.7269   0.9816   0.4006     H
H       0.7308   0.0761   0.7475     H
H       0.7308   0.2525   0.3286     H
H       0.7308   0.6714   0.9239     H
C        0.732   0.2117    0.145     C
C        0.732    0.855   0.0667     C
C        0.732   0.9333   0.7883     C
C       0.7401     0.15   0.4098     C
C       0.7401   0.2598     0.85     C
C       0.7401   0.5902   0.7402     C
H       0.7451   0.1029   0.8129     H
H       0.7451   0.1871     0.29     H
H       0.7451     0.71   0.8971     H
C       0.7455   0.2184    0.476     C
C       0.7455   0.2576   0.7816     C
C       0.7455    0.524   0.7424     C
C       0.7468   0.0649    0.847     C
C       0.7468    0.153   0.2179     C
C       0.7468   0.7821   0.9351     C
C       0.7552   0.2801   0.2102     C
C       0.7552   0.7898   0.0699     C
C       0.7552   0.9301   0.7199     C
O       0.7674   0.0328   0.5939     O
O       0.7674   0.4061   0.4389     O
O       0.7674   0.5611   0.9672     O
C       0.7701   0.4594   0.4198     C
C       0.7701   0.5802   0.0396     C
C       0.7701   0.9604   0.5406     C
C       0.7709   0.0509   0.7734     C
C       0.7709   0.2266   0.2775     C
C       0.7709   0.7225   0.9491     C
C       0.7721   0.1804   0.3893     C
C       0.7721   0.2089   0.8196     C
C       0.7721   0.6107   0.7911     C
O       0.8085   0.4419   0.3592     O
O       0.8085   0.6408   0.0827     O
O       0.8085   0.9173   0.5581     O
H       0.8143     0.23    0.509     H
H       0.8143    0.279     0.77     H
H       0.8143    0.491    0.721     H
N       0.8156   0.0128   0.8594     N
N       0.8156   0.1406   0.1534     N
N       0.8156   0.8466   0.9872     N
H       0.8167   0.1294   0.0129     H
H       0.8167   0.8835   0.8706     H
H       0.8167   0.9871   0.1165     H
C        0.817   0.0754   0.0045     C
C        0.817   0.9291   0.9246     C
C        0.817   0.9955   0.0709     C
C       0.8174    0.007   0.9282     C
C       0.8174   0.0718   0.0788     C
C       0.8174   0.9212    0.993     C
N       0.8322   0.1631    0.124     N
N       0.8322    0.876   0.0391     N
N       0.8322   0.9609   0.8369     N
H       0.8437    0.445   0.2352     H
H       0.8437   0.7648   0.2098     H
H       0.8437   0.7902    0.555     H
O       0.8461   0.0458   0.2996     O
O       0.8461   0.2538   0.9542     O
O       0.8461   0.7004   0.7462     O
H       0.8463   0.0281   0.1357     H
H       0.8463   0.1076   0.9719     H
H       0.8463   0.8643   0.8924     H
C       0.8537   0.1049   0.3622     C
C       0.8537   0.2573   0.8951     C
C       0.8537   0.6378   0.7427     C
N        0.858   0.2607   0.2516     N
N        0.858   0.7484   0.0091     N
N        0.858   0.9909   0.7393     N
O       0.8585    0.001   0.5148     O
O       0.8585   0.4852   0.4862     O
O       0.8585   0.5138    0.999     O
O       0.8755   0.0774   0.2758     O
O       0.8755   0.1984   0.9226     O
O       0.8755   0.7242   0.8016     O
H        0.891   0.3279   0.1021     H
H        0.891   0.7742   0.6721     H
H        0.891   0.8979   0.2258     H
C       0.8934   0.2069   0.1804     C
C       0.8934   0.8196   0.0265     C
C       0.8934   0.9735   0.7931     C
C       0.8943   0.4453   0.1952     C
C       0.8943   0.7499   0.5547     C
C       0.8943   0.8048   0.2501     C
C       0.9181   0.3823   0.1226     C
C       0.9181   0.7403   0.6177     C
C       0.9181   0.8774   0.2597     C
O       0.9245    0.105   0.4123     O
O       0.9245   0.3073    0.895     O
O       0.9245   0.5877   0.6927     O
H       0.9367   0.1185   0.6029     H
H       0.9367   0.3971   0.5156     H
H       0.9367   0.4844   0.8815     H
Zn     0.94559  0.36604  0.33559    Zn
Zn     0.94559  0.66441  0.03045    Zn
Zn     0.94559  0.96955  0.63396    Zn
N        0.956   0.5089   0.2001     N
N        0.956   0.6912   0.4911     N
N        0.956   0.7999   0.3088     N
C       0.9585   0.5886   0.2676     C
C       0.9585    0.679   0.4114     C
C       0.9585   0.7324    0.321     C
H       0.9587   0.2119   0.1515     H
H       0.9587   0.8485   0.0604     H
H       0.9587   0.9396   0.7881     H
C       0.9603   0.6001   0.3457     C
C       0.9603   0.6543   0.2544     C
C       0.9603   0.7456   0.3999     C
H       0.9644   0.5542   0.3535     H
H       0.9644   0.6465   0.2007     H
H       0.9644   0.7993   0.4458     H
C       0.9873   0.1307   0.6477     C
C       0.9873   0.3523    0.483     C
C       0.9873    0.517   0.8693     C
N       0.9931   0.4064   0.0814     N
N       0.9931    0.675   0.5936     N
N       0.9931   0.9186    0.325     N
