data_I
_chemical_name_common  '/home/zhangsd/repos/MofS-CGCNN/ML/data/WS24/clean_cifs/XICXEO'
_cell_length_a 14.70500
_cell_length_b 15.93400
_cell_length_c 16.79600
_cell_angle_alpha 90.00000
_cell_angle_beta  90.00000
_cell_angle_gamma 90.00000
_space_group_name_H-M_alt      'P 1'


loop_
_space_group_symop_operation_xyz
  'x, y, z' 

loop_
_atom_site_label
_atom_site_fract_x
_atom_site_fract_y
_atom_site_fract_z
_atom_site_type_symbol
C       0.0003   0.1275   0.0778     C
C       0.0003   0.3725   0.5778     C
N       0.0085   0.1217   0.9928     N
N       0.0085   0.3783   0.4928     N
O       0.0122   0.1499   0.6665     O
O       0.0122   0.3501   0.1665     O
C       0.0148    0.642   0.2586     C
C       0.0148    0.858   0.7586     C
C       0.0177   0.6306   0.6343     C
C       0.0177   0.8694   0.1343     C
H       0.0205    0.646   0.2036     H
H       0.0205    0.854   0.7036     H
C       0.0231   0.0409   0.5704     C
C       0.0231   0.4591   0.0704     C
C       0.0443   0.0825   0.6492     C
C       0.0443   0.4175   0.1492     C
H       0.0465   0.6398   0.6829     H
H       0.0465   0.8602   0.1829     H
C       0.0563   0.6393   0.5629     C
C       0.0563   0.8607   0.0629     C
C       0.0597   0.1031   0.2069     C
C       0.0597   0.3969   0.7069     C
C       0.0648   0.5427   0.9581     C
C       0.0648   0.9573   0.4581     C
C       0.0686   0.0955   0.1259     C
C       0.0686   0.4045   0.6259     C
N        0.071    0.106   0.8751     N
N        0.071    0.394   0.3751     N
C       0.0746   0.6674   0.3907     C
C       0.0746   0.8326   0.8907     C
C       0.0805   0.6746   0.3088     C
C       0.0805   0.8254   0.8088     C
C       0.0843   0.1012   0.9518     C
C       0.0843   0.3988   0.4518     C
C         0.09   0.5016   0.0277     C
C         0.09   0.9984   0.5277     C
O        0.097     0.04   0.6936     O
O        0.097     0.46   0.1936     O
H       0.1087   0.5723   0.9298     H
H       0.1087   0.9277   0.4298     H
H       0.1163   0.6545    0.553     H
H       0.1163   0.8455    0.053     H
H       0.1193   0.0694   0.1039     H
H       0.1193   0.4306   0.6039     H
H       0.1199    0.689   0.4236     H
H       0.1199    0.811   0.9236     H
H       0.1276   0.1473   0.3587     H
H       0.1276   0.3527   0.8587     H
N       0.1302   0.0709   0.2578     N
N       0.1302   0.4291   0.7578     N
H       0.1391   0.0857   0.9753     H
H       0.1391   0.4143   0.4753     H
C       0.1547    0.103   0.3316     C
C       0.1547    0.397   0.8316     C
Zn     0.15497  0.08996  0.78378    Zn
Zn     0.15497  0.41004  0.28378    Zn
N       0.1566   0.7176   0.2744     N
N       0.1566   0.7824   0.7744     N
H       0.1805   0.6612   0.1656     H
H       0.1805   0.8388   0.6656     H
H       0.1871   0.6944   0.8569     H
H       0.1871   0.8056   0.3569     H
H       0.1878   0.5209   0.6929     H
H       0.1878   0.9791   0.1929     H
C       0.1883   0.0095   0.2401     C
C       0.1883   0.4905   0.7401     C
C       0.1908   0.0045   0.5485     C
C       0.1908   0.4955   0.0485     C
H       0.1962   0.2378   0.6518     H
H       0.1962   0.2622   0.1518     H
C       0.1969   0.7022   0.2023     C
C       0.1969   0.7978   0.7023     C
C       0.2013   0.7176   0.8077     C
C       0.2013   0.7824   0.3077     C
O       0.2228    0.076   0.5583     O
O       0.2228    0.424   0.0583     O
C       0.2264   0.0562   0.3557     C
C       0.2264   0.4438   0.8557     C
N       0.2321   0.1914   0.7615     N
N       0.2321   0.3086   0.2615     N
O       0.2336   0.5622   0.0528     O
O       0.2336   0.9378   0.5528     O
C       0.2353   0.2418   0.6952     C
C       0.2353   0.2582   0.1952     C
H       0.2428   0.5629   0.4037     H
H       0.2428   0.9371   0.9037     H
N       0.2469   0.5024   0.7992     N
N       0.2469   0.9976   0.2992     N
N       0.2531   0.0024   0.7992     N
N       0.2531   0.4976   0.2992     N
H       0.2572   0.0629   0.4037     H
H       0.2572   0.4371   0.9037     H
C       0.2647   0.7418   0.6952     C
C       0.2647   0.7582   0.1952     C
O       0.2664   0.0622   0.0528     O
O       0.2664   0.4378   0.5528     O
N       0.2679   0.6914   0.7615     N
N       0.2679   0.8086   0.2615     N
C       0.2736   0.5562   0.3557     C
C       0.2736   0.9438   0.8557     C
O       0.2772    0.576   0.5583     O
O       0.2772    0.924   0.0583     O
C       0.2987   0.2176   0.8077     C
C       0.2987   0.2824   0.3077     C
C       0.3031   0.2022   0.2023     C
C       0.3031   0.2978   0.7023     C
H       0.3038   0.7378   0.6518     H
H       0.3038   0.7622   0.1518     H
C       0.3092   0.5045   0.5485     C
C       0.3092   0.9955   0.0485     C
C       0.3117   0.5095   0.2401     C
C       0.3117   0.9905   0.7401     C
H       0.3122   0.0209   0.6929     H
H       0.3122   0.4791   0.1929     H
H       0.3129   0.1944   0.8569     H
H       0.3129   0.3056   0.3569     H
H       0.3195   0.1612   0.1656     H
H       0.3195   0.3388   0.6656     H
N       0.3434   0.2176   0.2744     N
N       0.3434   0.2824   0.7744     N
Zn     0.34503  0.58996  0.78378    Zn
Zn     0.34503  0.91004  0.28378    Zn
C       0.3453    0.603   0.3316     C
C       0.3453    0.897   0.8316     C
H       0.3609   0.5857   0.9753     H
H       0.3609   0.9143   0.4753     H
N       0.3698   0.5709   0.2578     N
N       0.3698   0.9291   0.7578     N
H       0.3724   0.6473   0.3587     H
H       0.3724   0.8527   0.8587     H
H       0.3801    0.189   0.4236     H
H       0.3801    0.311   0.9236     H
H       0.3807   0.5694   0.1039     H
H       0.3807   0.9306   0.6039     H
H       0.3837   0.1545    0.553     H
H       0.3837   0.3455    0.053     H
H       0.3913   0.0723   0.9298     H
H       0.3913   0.4277   0.4298     H
O        0.403     0.54   0.6936     O
O        0.403     0.96   0.1936     O
C         0.41   0.0016   0.0277     C
C         0.41   0.4984   0.5277     C
C       0.4157   0.6012   0.9518     C
C       0.4157   0.8988   0.4518     C
C       0.4195   0.1746   0.3088     C
C       0.4195   0.3254   0.8088     C
C       0.4254   0.1674   0.3907     C
C       0.4254   0.3326   0.8907     C
N        0.429    0.606   0.8751     N
N        0.429    0.894   0.3751     N
C       0.4314   0.5955   0.1259     C
C       0.4314   0.9045   0.6259     C
C       0.4352   0.0427   0.9581     C
C       0.4352   0.4573   0.4581     C
C       0.4403   0.6031   0.2069     C
C       0.4403   0.8969   0.7069     C
C       0.4437   0.1393   0.5629     C
C       0.4437   0.3607   0.0629     C
H       0.4535   0.1398   0.6829     H
H       0.4535   0.3602   0.1829     H
C       0.4557   0.5825   0.6492     C
C       0.4557   0.9175   0.1492     C
C       0.4769   0.5409   0.5704     C
C       0.4769   0.9591   0.0704     C
H       0.4795    0.146   0.2036     H
H       0.4795    0.354   0.7036     H
C       0.4823   0.1306   0.6343     C
C       0.4823   0.3694   0.1343     C
C       0.4852    0.142   0.2586     C
C       0.4852    0.358   0.7586     C
O       0.4878   0.6499   0.6665     O
O       0.4878   0.8501   0.1665     O
N       0.4915   0.6217   0.9928     N
N       0.4915   0.8783   0.4928     N
C       0.4997   0.6275   0.0778     C
C       0.4997   0.8725   0.5778     C
C       0.5003   0.1275   0.4222     C
C       0.5003   0.3725   0.9222     C
N       0.5085   0.1217   0.5072     N
N       0.5085   0.3783   0.0072     N
O       0.5122   0.1499   0.8335     O
O       0.5122   0.3501   0.3335     O
C       0.5148    0.642   0.2414     C
C       0.5148    0.858   0.7414     C
C       0.5177   0.6306   0.8657     C
C       0.5177   0.8694   0.3657     C
H       0.5205    0.646   0.2964     H
H       0.5205    0.854   0.7964     H
C       0.5231   0.0409   0.9296     C
C       0.5231   0.4591   0.4296     C
C       0.5443   0.0825   0.8508     C
C       0.5443   0.4175   0.3508     C
H       0.5465   0.6398   0.8171     H
H       0.5465   0.8602   0.3171     H
C       0.5563   0.6393   0.9371     C
C       0.5563   0.8607   0.4371     C
C       0.5597   0.1031   0.2931     C
C       0.5597   0.3969   0.7931     C
C       0.5648   0.5427   0.5419     C
C       0.5648   0.9573   0.0419     C
C       0.5686   0.0955   0.3741     C
C       0.5686   0.4045   0.8741     C
N        0.571    0.106   0.6249     N
N        0.571    0.394   0.1249     N
C       0.5746   0.6674   0.1093     C
C       0.5746   0.8326   0.6093     C
C       0.5805   0.6746   0.1912     C
C       0.5805   0.8254   0.6912     C
C       0.5843   0.1012   0.5482     C
C       0.5843   0.3988   0.0482     C
C         0.59   0.5016   0.4723     C
C         0.59   0.9984   0.9723     C
O        0.597     0.04   0.8064     O
O        0.597     0.46   0.3064     O
H       0.6087   0.5723   0.5702     H
H       0.6087   0.9277   0.0702     H
H       0.6163   0.6545    0.947     H
H       0.6163   0.8455    0.447     H
H       0.6193   0.0694   0.3961     H
H       0.6193   0.4306   0.8961     H
H       0.6199    0.689   0.0764     H
H       0.6199    0.811   0.5764     H
H       0.6276   0.1473   0.1413     H
H       0.6276   0.3527   0.6413     H
N       0.6302   0.0709   0.2422     N
N       0.6302   0.4291   0.7422     N
H       0.6391   0.0857   0.5247     H
H       0.6391   0.4143   0.0247     H
C       0.6547    0.103   0.1684     C
C       0.6547    0.397   0.6684     C
Zn     0.65497  0.08996  0.71622    Zn
Zn     0.65497  0.41004  0.21622    Zn
N       0.6566   0.7176   0.2256     N
N       0.6566   0.7824   0.7256     N
H       0.6805   0.6612   0.3344     H
H       0.6805   0.8388   0.8344     H
H       0.6871   0.6944   0.6431     H
H       0.6871   0.8056   0.1431     H
H       0.6878   0.5209   0.8071     H
H       0.6878   0.9791   0.3071     H
C       0.6883   0.0095   0.2599     C
C       0.6883   0.4905   0.7599     C
C       0.6908   0.0045   0.9515     C
C       0.6908   0.4955   0.4515     C
H       0.6962   0.2378   0.8482     H
H       0.6962   0.2622   0.3482     H
C       0.6969   0.7022   0.2977     C
C       0.6969   0.7978   0.7977     C
C       0.7013   0.7176   0.6923     C
C       0.7013   0.7824   0.1923     C
O       0.7228    0.076   0.9417     O
O       0.7228    0.424   0.4417     O
C       0.7264   0.0562   0.1443     C
C       0.7264   0.4438   0.6443     C
N       0.7321   0.1914   0.7385     N
N       0.7321   0.3086   0.2385     N
O       0.7336   0.5622   0.4472     O
O       0.7336   0.9378   0.9472     O
C       0.7353   0.2418   0.8048     C
C       0.7353   0.2582   0.3048     C
H       0.7428   0.5629   0.0963     H
H       0.7428   0.9371   0.5963     H
N       0.7469   0.5024   0.7008     N
N       0.7469   0.9976   0.2008     N
N       0.7531   0.0024   0.7008     N
N       0.7531   0.4976   0.2008     N
H       0.7572   0.0629   0.0963     H
H       0.7572   0.4371   0.5963     H
C       0.7647   0.7418   0.8048     C
C       0.7647   0.7582   0.3048     C
O       0.7664   0.0622   0.4472     O
O       0.7664   0.4378   0.9472     O
N       0.7679   0.6914   0.7385     N
N       0.7679   0.8086   0.2385     N
C       0.7736   0.5562   0.1443     C
C       0.7736   0.9438   0.6443     C
O       0.7772    0.576   0.9417     O
O       0.7772    0.924   0.4417     O
C       0.7987   0.2176   0.6923     C
C       0.7987   0.2824   0.1923     C
C       0.8031   0.2022   0.2977     C
C       0.8031   0.2978   0.7977     C
H       0.8038   0.7378   0.8482     H
H       0.8038   0.7622   0.3482     H
C       0.8092   0.5045   0.9515     C
C       0.8092   0.9955   0.4515     C
C       0.8117   0.5095   0.2599     C
C       0.8117   0.9905   0.7599     C
H       0.8122   0.0209   0.8071     H
H       0.8122   0.4791   0.3071     H
H       0.8129   0.1944   0.6431     H
H       0.8129   0.3056   0.1431     H
H       0.8195   0.1612   0.3344     H
H       0.8195   0.3388   0.8344     H
N       0.8434   0.2176   0.2256     N
N       0.8434   0.2824   0.7256     N
Zn     0.84503  0.58996  0.71622    Zn
Zn     0.84503  0.91004  0.21622    Zn
C       0.8453    0.603   0.1684     C
C       0.8453    0.897   0.6684     C
H       0.8609   0.5857   0.5247     H
H       0.8609   0.9143   0.0247     H
N       0.8698   0.5709   0.2422     N
N       0.8698   0.9291   0.7422     N
H       0.8724   0.6473   0.1413     H
H       0.8724   0.8527   0.6413     H
H       0.8801    0.189   0.0764     H
H       0.8801    0.311   0.5764     H
H       0.8807   0.5694   0.3961     H
H       0.8807   0.9306   0.8961     H
H       0.8837   0.1545    0.947     H
H       0.8837   0.3455    0.447     H
H       0.8913   0.0723   0.5702     H
H       0.8913   0.4277   0.0702     H
O        0.903     0.54   0.8064     O
O        0.903     0.96   0.3064     O
C         0.91   0.0016   0.4723     C
C         0.91   0.4984   0.9723     C
C       0.9157   0.6012   0.5482     C
C       0.9157   0.8988   0.0482     C
C       0.9195   0.1746   0.1912     C
C       0.9195   0.3254   0.6912     C
C       0.9254   0.1674   0.1093     C
C       0.9254   0.3326   0.6093     C
N        0.929    0.606   0.6249     N
N        0.929    0.894   0.1249     N
C       0.9314   0.5955   0.3741     C
C       0.9314   0.9045   0.8741     C
C       0.9352   0.0427   0.5419     C
C       0.9352   0.4573   0.0419     C
C       0.9403   0.6031   0.2931     C
C       0.9403   0.8969   0.7931     C
C       0.9437   0.1393   0.9371     C
C       0.9437   0.3607   0.4371     C
H       0.9535   0.1398   0.8171     H
H       0.9535   0.3602   0.3171     H
C       0.9557   0.5825   0.8508     C
C       0.9557   0.9175   0.3508     C
C       0.9769   0.5409   0.9296     C
C       0.9769   0.9591   0.4296     C
H       0.9795    0.146   0.2964     H
H       0.9795    0.354   0.7964     H
C       0.9823   0.1306   0.8657     C
C       0.9823   0.3694   0.3657     C
C       0.9852    0.142   0.2414     C
C       0.9852    0.358   0.7414     C
O       0.9878   0.6499   0.8335     O
O       0.9878   0.8501   0.3335     O
N       0.9915   0.6217   0.5072     N
N       0.9915   0.8783   0.0072     N
C       0.9997   0.6275   0.4222     C
C       0.9997   0.8725   0.9222     C
