data_I
_chemical_name_common  '/home/zhangsd/repos/MofS-CGCNN/ML/data/WS24/clean_cifs/XOFTOC'
_cell_length_a  7.08070
_cell_length_b 18.18740
_cell_length_c 24.82370
_cell_angle_alpha 90.00000
_cell_angle_beta  90.00000
_cell_angle_gamma 99.02200
_space_group_name_H-M_alt      'P 1'


loop_
_space_group_symop_operation_xyz
  'x, y, z' 

loop_
_atom_site_label
_atom_site_fract_x
_atom_site_fract_y
_atom_site_fract_z
_atom_site_type_symbol
I          0.0      0.5      0.0     I
I          0.0      0.5      0.5     I
I      0.01945  0.55683   0.1702     I
I      0.01945  0.55683   0.3298     I
C       0.0238    0.347   0.1568     C
C       0.0238    0.347   0.3432     C
C       0.0246   0.7851   0.6478     C
C       0.0246   0.7851   0.8522     C
C       0.0529   0.1438   0.1355     C
C       0.0529   0.1438   0.3645     C
O       0.0605   0.9141   0.6263     O
O       0.0605   0.9141   0.8737     O
O       0.0747   0.0497  0.56224     O
O       0.0747   0.0497  0.93776     O
C       0.0961   0.2829    0.147     C
C       0.0961   0.2829    0.353     C
H       0.1004   0.1688    0.621     H
H       0.1004   0.1688    0.879     H
H       0.1074   0.3918   0.1559     H
H       0.1074   0.3918   0.3441     H
H       0.1121    0.293   0.6363     H
H       0.1121    0.293   0.8637     H
C       0.1211   0.2024   0.5925     C
C       0.1211   0.2024   0.9075     C
H       0.1213   0.2651     0.75     H
C       0.1281   0.2774   0.6012     C
C       0.1281   0.2774   0.8988     C
C       0.1405   0.0965   0.5275     C
C       0.1405   0.0965   0.9725     C
C       0.1455   0.1778   0.5405     C
C       0.1455   0.1778   0.9595     C
N       0.1559   0.3288   0.5633     N
N       0.1559   0.3288   0.9367     N
N       0.1605   0.6513   0.6675     N
N       0.1605   0.6513   0.8325     N
Cu     0.17511  0.43904  0.58043    Cu
Cu     0.17511  0.43904  0.91957    Cu
C        0.177    0.231   0.5004     C
C        0.177    0.231   0.9996     C
C       0.1788   0.3047    0.513     C
C       0.1788   0.3047    0.987     C
O       0.1901   0.8472     0.25     O
H       0.1968   0.3395   0.0147     H
H       0.1968   0.3395   0.4853     H
H        0.197   0.2171   0.0349     H
H        0.197   0.2171   0.4651     H
O        0.207   0.0817  0.01732     O
O        0.207   0.0817  0.48268     O
C       0.2139   0.7844   0.6579     C
C       0.2139   0.7844   0.8421     C
Sm     0.21755  0.01567  0.09738    Sm
Sm     0.21755  0.01567  0.40262    Sm
H       0.2257   0.2848   0.1399     H
H       0.2257   0.2848   0.3601     H
H       0.2297   0.7106     0.25     H
Cu     0.23019  0.43285     0.75    Cu
O        0.231   0.1464   0.1336     O
O        0.231   0.1464   0.3664     O
Cu     0.24945  0.55362  0.68351    Cu
Cu     0.24945  0.55362  0.81649    Cu
C       0.2541   0.2705     0.75     C
H        0.261   0.1601     0.75     H
C       0.2761   0.7166   0.6677     C
C       0.2761   0.7166   0.8323     C
H       0.3001   0.8286   0.6583     H
H       0.3001   0.8286   0.8417     H
O       0.3021   0.9226  0.02971     O
O       0.3021   0.9226  0.47029     O
H       0.3024    0.806   0.5276     H
H       0.3024    0.806   0.9724     H
H       0.3192   0.6835   0.5463     H
H       0.3192   0.6835   0.9537     H
C       0.3243   0.7738      0.0     C
C       0.3243   0.7738      0.5     C
C       0.3264   0.8775   0.0669     C
C       0.3264   0.8775   0.4331     C
O       0.3267   0.8957  0.11494     O
O       0.3267   0.8957  0.38506     O
C        0.336   0.7003    0.511     C
C        0.336   0.7003    0.989     C
C       0.3373   0.2067     0.75     C
C       0.3454   0.7987   0.0521     C
C       0.3454   0.7987   0.4479     C
N       0.3514   0.3386     0.75     N
C       0.3626   0.7171     0.25     C
C       0.3638   0.8568     0.25     C
N       0.3706   0.6521   0.0272     N
N       0.3706   0.6521   0.4728     N
C       0.3761   0.7485   0.0918     C
C       0.3761   0.7485   0.4082     C
Cu      0.3779  0.54483  0.00784    Cu
Cu      0.3779  0.54483  0.49216    Cu
H       0.3827   0.6087     0.25     H
H       0.3875   0.7632   0.1276     H
H       0.3875   0.7632   0.3724     H
C       0.3894   0.6763   0.0775     C
C       0.3894   0.6763   0.4225     C
H       0.4053   0.7169   0.6747     H
H       0.4053   0.7169   0.8253     H
H       0.4126   0.6432   0.1043     H
H       0.4126   0.6432   0.3957     H
C       0.4557   0.6559     0.25     C
C       0.4662   0.7878     0.25     C
O       0.4686   0.9184     0.25     O
I      0.47414  0.44254     0.25     I
I      0.49063  0.47026  0.08947     I
I      0.49063  0.47026  0.41053     I
I      0.50937  0.52974  0.58947     I
I      0.50937  0.52974  0.91053     I
I      0.52586  0.55746     0.75     I
O       0.5314   0.0816     0.75     O
C       0.5338   0.2122     0.75     C
C       0.5443   0.3441     0.75     C
H       0.5874   0.3568   0.6043     H
H       0.5874   0.3568   0.8957     H
H       0.5947   0.2831   0.1747     H
H       0.5947   0.2831   0.3253     H
C       0.6106   0.3237   0.5775     C
C       0.6106   0.3237   0.9225     C
H       0.6125   0.2368   0.6276     H
H       0.6125   0.2368   0.8724     H
H       0.6173   0.3913     0.75     H
Cu      0.6221  0.45517  0.50784    Cu
Cu      0.6221  0.45517  0.99216    Cu
C       0.6239   0.2515   0.5918     C
C       0.6239   0.2515   0.9082     C
N       0.6294   0.3479   0.5272     N
N       0.6294   0.3479   0.9728     N
C       0.6362   0.1432     0.75     C
C       0.6374   0.2829     0.75     C
N       0.6486   0.6614     0.25     N
C       0.6546   0.2013   0.5521     C
C       0.6546   0.2013   0.9479     C
C       0.6627   0.7933     0.25     C
C        0.664   0.2997    0.011     C
C        0.664   0.2997    0.489     C
O       0.6733   0.1043  0.61494     O
O       0.6733   0.1043  0.88506     O
C       0.6736   0.1225   0.5669     C
C       0.6736   0.1225   0.9331     C
C       0.6757   0.2262      0.0     C
C       0.6757   0.2262      0.5     C
H       0.6808   0.3165   0.0463     H
H       0.6808   0.3165   0.4537     H
H       0.6976    0.194   0.0276     H
H       0.6976    0.194   0.4724     H
O       0.6979   0.0774  0.52971     O
O       0.6979   0.0774  0.97029     O
H       0.6999   0.1714   0.1583     H
H       0.6999   0.1714   0.3417     H
C       0.7239   0.2834   0.1677     C
C       0.7239   0.2834   0.3323     C
H        0.739   0.8399     0.25     H
C       0.7459   0.7295     0.25     C
Cu     0.75055  0.44638  0.18351    Cu
Cu     0.75055  0.44638  0.31649    Cu
O        0.769   0.8536   0.6336     O
O        0.769   0.8536   0.8664     O
Cu     0.76981  0.56715     0.25    Cu
H       0.7703   0.2894     0.75     H
H       0.7743   0.7152   0.6399     H
H       0.7743   0.7152   0.8601     H
Sm     0.78245  0.98433  0.59738    Sm
Sm     0.78245  0.98433  0.90262    Sm
C       0.7861   0.2156   0.1579     C
C       0.7861   0.2156   0.3421     C
O        0.793   0.9183  0.51732     O
O        0.793   0.9183  0.98268     O
H        0.803   0.7829   0.5349     H
H        0.803   0.7829   0.9651     H
H       0.8032   0.6605   0.5147     H
H       0.8032   0.6605   0.9853     H
O       0.8099   0.1528     0.75     O
C       0.8212   0.6953    0.013     C
C       0.8212   0.6953    0.487     C
C        0.823    0.769   0.0004     C
C        0.823    0.769   0.4996     C
Cu     0.82489  0.56096  0.08043    Cu
Cu     0.82489  0.56096  0.41957    Cu
N       0.8395   0.3487   0.1675     N
N       0.8395   0.3487   0.3325     N
N       0.8441   0.6712   0.0633     N
N       0.8441   0.6712   0.4367     N
C       0.8545   0.8222   0.0405     C
C       0.8545   0.8222   0.4595     C
C       0.8595   0.9035   0.0275     C
C       0.8595   0.9035   0.4725     C
C       0.8719   0.7226   0.1012     C
C       0.8719   0.7226   0.3988     C
H       0.8787   0.7349     0.25     H
C       0.8789   0.7976   0.0925     C
C       0.8789   0.7976   0.4075     C
H       0.8879    0.707   0.1363     H
H       0.8879    0.707   0.3637     H
H       0.8926   0.6082   0.6559     H
H       0.8926   0.6082   0.8441     H
H       0.8996   0.8312    0.121     H
H       0.8996   0.8312    0.379     H
C       0.9039   0.7171    0.647     C
C       0.9039   0.7171    0.853     C
O       0.9253   0.9503  0.06224     O
O       0.9253   0.9503  0.43776     O
O       0.9395   0.0859   0.1263     O
O       0.9395   0.0859   0.3737     O
C       0.9471   0.8562   0.6355     C
C       0.9471   0.8562   0.8645     C
C       0.9754   0.2149   0.1478     C
C       0.9754   0.2149   0.3522     C
C       0.9762    0.653   0.6568     C
C       0.9762    0.653   0.8432     C
I      0.98055  0.44317   0.6702     I
I      0.98055  0.44317   0.8298     I
