data_I
_chemical_name_common  '/home/zhangsd/repos/MofS-CGCNN/ML/data/WS24/clean_cifs/XOFTES'
_cell_length_a 13.58300
_cell_length_b 14.01500
_cell_length_c 19.70500
_cell_angle_alpha 102.77600
_cell_angle_beta  109.15200
_cell_angle_gamma 99.33000
_space_group_name_H-M_alt      'P 1'


loop_
_space_group_symop_operation_xyz
  'x, y, z' 

loop_
_atom_site_label
_atom_site_fract_x
_atom_site_fract_y
_atom_site_fract_z
_atom_site_type_symbol
H       0.0027   0.1977   0.2137     H
C       0.0056   0.4194   0.3035     C
H       0.0058   0.5186   0.7021     H
O       0.0058   0.7096   0.8788     O
C       0.0063   0.6595   0.7579     C
C       0.0092   0.2512   0.2538     C
H       0.0149   0.2449   0.5988     H
Er     0.01968   0.2794  0.01051    Er
C       0.0274   0.6436   0.8349     C
C       0.0347   0.2393   0.3247     C
C       0.0356   0.4022   0.3742     C
H       0.0436    0.177   0.3309     H
N        0.047   0.3136   0.3846     N
H       0.0481   0.4558    0.416     H
O       0.0512   0.6426   0.1163     O
O       0.0532   0.4527   0.0471     O
H        0.054   0.0586   0.7148     H
H       0.0615   0.3043   0.7266     H
O       0.0615   0.5711   0.8485     O
H       0.0621   0.9716   0.0107     H
O       0.0659   0.8032   0.1231     O
Cu     0.07284  0.99373  0.56054    Cu
C       0.0741   0.2999   0.6267     C
Cu     0.07743  0.28901  0.48188    Cu
C       0.0815    0.734   0.1535     C
Er     0.09812  0.49133 0.948854    Er
O       0.1002   0.1478   0.0125     O
C       0.1022    0.335   0.7037     C
C        0.124   0.0936   0.7248     C
C       0.1284   0.9576    0.016     C
N       0.1287   0.3419   0.5913     N
I      0.12974  0.08865  0.46964     I
H       0.1332   0.6177   0.2402     H
N       0.1358   0.8644   0.0141     N
C         0.14   0.7608   0.2371     C
O       0.1462   0.3384   0.9687     O
O       0.1518   0.6746   0.0083     O
O        0.152   0.4164    0.854     O
I      0.15431  0.82778  0.55418     I
H       0.1562   0.1619   0.8334     H
C       0.1567   0.6848   0.2698     C
N       0.1597   0.0818   0.6685     N
H       0.1687   0.9118   0.2605     H
C       0.1772   0.8588   0.2813     C
C       0.1853   0.1547   0.7965     C
O        0.188   0.4729   0.2005     O
C       0.1889    0.414   0.7457     C
C       0.1925   0.1377   0.0214     C
O       0.2058   0.3458   0.1179     O
C       0.2075   0.7082   0.3453     C
C       0.2121    0.035   0.0253     C
C       0.2127   0.4196   0.6322     C
C       0.2161   0.4544    0.829     C
H       0.2169   0.6555   0.3665     H
C       0.2171   0.3952   0.1851     C
C       0.2288   0.8772   0.3592     C
C       0.2315   0.8446   0.0223     C
C       0.2348   0.7365   0.0116     C
N       0.2442   0.8012   0.3902     N
C       0.2472   0.4558   0.7101     C
H       0.2503   0.4515   0.6081     H
H        0.253   0.9436   0.3903     H
C       0.2619   0.1308   0.6862     C
H       0.2639   0.4597   0.3322     H
C       0.2644   0.3499   0.2463     C
H       0.2722   0.9077   0.7232     H
O       0.2733   0.2033   0.0287     O
O       0.2768   0.5237   0.0239     O
H       0.2813   0.9318   0.8463     H
H       0.2825   0.2228    0.185     H
C       0.2827    0.399   0.3206     C
H       0.2888   0.1237   0.6481     H
C       0.2895    0.205   0.8135     C
C       0.2937   0.2596   0.2336     C
O       0.3025   0.5221   0.8672     O
Cu      0.3057   0.8546    0.502    Cu
H       0.3094   0.5079   0.7376     H
Cu      0.3095   0.7966   0.4966    Cu
C       0.3118   0.0161   0.0367     C
C        0.313   0.8742   0.7529     C
C       0.3143   0.8866   0.8257     C
O       0.3154   0.7136   0.0023     O
O       0.3211   0.3139   0.9336     O
Er     0.32155  0.38051 0.056946    Er
C        0.322   0.9191    0.036     C
C       0.3279   0.3584   0.3763     C
C       0.3301   0.1911   0.7572     C
H       0.3381   0.3924   0.4253     H
C       0.3395   0.2246   0.2932     C
I      0.34046  0.61313  0.53206     I
O       0.3491   0.6537   0.1619     O
Cu     0.35376  0.79137   0.6164    Cu
N       0.3583   0.2731   0.3646     N
H       0.3585   0.1637   0.2835     H
C       0.3628    0.276   0.8899     C
H       0.3652    0.828   0.9122     H
C       0.3677   0.8275   0.8655     C
N       0.3684   0.8159   0.7235     N
H        0.371   0.0673   0.0447     H
H       0.3885   0.9043   0.0446     H
C       0.3912   0.5994   0.1976     C
O       0.3966   0.5113   0.1725     O
H       0.4014   0.2216   0.7669     H
Er     0.41303   0.5942 0.990557    Er
C        0.421   0.7639   0.7648     C
C       0.4238   0.7688   0.8362     C
H       0.4274   0.7859   0.2906     H
C       0.4436   0.6442   0.2835     C
C       0.4499   0.7428   0.3188     C
O       0.4549   0.3332   0.1446     O
H       0.4549    0.417   0.5651     H
H       0.4577   0.7223   0.7449     H
Cu     0.45799  0.24157   0.4521    Cu
O       0.4613   0.2948   0.9034     O
N        0.477   0.2807   0.5602     N
C        0.479   0.3758   0.5946     C
O       0.4792   0.4854   0.0585     O
O       0.4798   0.7122   0.9425     O
C       0.4848   0.5852   0.3283     C
C       0.4863   0.7098     0.88     C
H       0.4881   0.5203   0.3067     H
C       0.4893    0.777   0.3955     C
H       0.4929   0.8438   0.4181     H
I      0.49405  0.93321  0.59412     I
I      0.50595  0.06679  0.40588     I
H       0.5071   0.1562   0.5819     H
C       0.5107    0.223   0.6045     C
H       0.5119   0.4797   0.6933     H
C       0.5137   0.2902     0.12     C
C       0.5152   0.4148   0.6717     C
O       0.5202   0.2878   0.0575     O
O       0.5208   0.5146   0.9415     O
C        0.521   0.6242   0.4054     C
N        0.523   0.7193   0.4398     N
O       0.5387   0.7052   0.0966     O
Cu     0.54201  0.75843   0.5479    Cu
H       0.5423   0.2777   0.2551     H
H       0.5451    0.583   0.4349     H
O       0.5451   0.6668   0.8554     O
C       0.5501   0.2572   0.6812     C
C       0.5564   0.3558   0.7165     C
H       0.5726   0.2141   0.7094     H
C       0.5762   0.2312   0.1638     C
C        0.579   0.2361   0.2352     C
Er     0.58697   0.4058 0.009443    Er
H       0.5986   0.7784   0.2331     H
O       0.6034   0.4887   0.8275     O
C       0.6088   0.4006   0.8024     C
H       0.6115   0.0957   0.9554     H
H        0.629   0.9327   0.9553     H
N       0.6316   0.1841   0.2765     N
C       0.6323   0.1725   0.1345     C
H       0.6348    0.172   0.0878     H
C       0.6372    0.724   0.1101     C
H       0.6415   0.8363   0.7165     H
N       0.6417   0.7269   0.6354     N
Cu     0.64624  0.20863   0.3836    Cu
O       0.6509   0.3463   0.8381     O
I      0.65954  0.38687  0.46794     I
C       0.6605   0.7754   0.7068     C
H       0.6619   0.6076   0.5747     H
C       0.6699   0.8089   0.2428     C
C       0.6721   0.6416   0.6237     C
C        0.678   0.0809    0.964     C
Er     0.67845  0.61949 0.943054    Er
O       0.6789   0.6861   0.0664     O
O       0.6846   0.2864   0.9977     O
C       0.6857   0.1134   0.1743     C
C        0.687   0.1258   0.2471     C
C       0.6882   0.9839   0.9633     C
Cu      0.6905   0.2034   0.5034    Cu
H       0.6906   0.4921   0.2624     H
Cu      0.6943   0.1454    0.498    Cu
O       0.6975   0.4779   0.1328     O
C       0.7063   0.7404   0.7664     C
C       0.7105    0.795   0.1865     C
H       0.7112   0.8763   0.3519     H
C       0.7173    0.601   0.6794     C
H       0.7175   0.7772    0.815     H
H       0.7187   0.0682   0.1537     H
O       0.7232   0.4763   0.9761     O
O       0.7267   0.7967   0.9713     O
H       0.7278   0.0923   0.2768     H
C       0.7356   0.6501   0.7537     C
H       0.7361   0.5403   0.6678     H
C       0.7381   0.8692   0.3138     C
H        0.747   0.0564   0.6097     H
H       0.7497   0.5485   0.3919     H
C       0.7528   0.5442   0.2899     C
N       0.7558   0.1988   0.6098     N
C       0.7652   0.2635   0.9884     C
C       0.7685   0.1554   0.9777     C
C       0.7712   0.1228   0.6408     C
C       0.7829   0.6048   0.8149     C
H       0.7831   0.3445   0.6335     H
C       0.7839   0.5456    0.171     C
C       0.7873   0.5804   0.3678     C
C       0.7879    0.965   0.9747     C
C       0.7925   0.2918   0.6547     C
O       0.7942   0.6542   0.8821     O
C       0.8075   0.8623   0.9786     C
C       0.8111    0.586   0.2543     C
O        0.812   0.5271   0.7995     O
C       0.8147   0.8453   0.2035     C
C       0.8228   0.1412   0.7187     C
H       0.8313   0.0882   0.7395     H
N       0.8403   0.9182   0.3315     N
C       0.8433   0.3152   0.7302     C
H       0.8438   0.8381   0.1666     H
I      0.84569  0.17222  0.44582     I
O        0.848   0.5836    0.146     O
O       0.8482   0.3254   0.9917     O
O       0.8538   0.6616   0.0313     O
C         0.86   0.2392   0.7629     C
N       0.8642   0.1356   0.9859     N
H       0.8668   0.3823   0.7598     H
I      0.87026  0.91135  0.53036     I
N       0.8713   0.6581   0.4087     N
C       0.8716   0.0424    0.984     C
C        0.876   0.9064   0.2752     C
C       0.8978    0.665   0.2963     C
O       0.8998   0.8522   0.9875     O
Er     0.90188  0.50867 0.051146    Er
C       0.9185    0.266   0.8465     C
Cu     0.92257  0.71099  0.51812    Cu
C       0.9259   0.7001   0.3733     C
Cu     0.92716  0.00627  0.43946    Cu
O       0.9341   0.1968   0.8769     O
H       0.9379   0.0284   0.9893     H
O       0.9385   0.4289   0.1515     O
H       0.9385   0.6957   0.2734     H
H        0.946   0.9414   0.2852     H
O       0.9468   0.5473   0.9529     O
O       0.9488   0.3574   0.8837     O
H       0.9519   0.5442    0.584     H
N        0.953   0.6864   0.6154     N
H       0.9564    0.823   0.6691     H
C       0.9644   0.5978   0.6258     C
C       0.9653   0.7607   0.6753     C
C       0.9726   0.3564   0.1651     C
Er     0.98032   0.7206  0.98949    Er
H       0.9851   0.7551   0.4012     H
C       0.9908   0.7488   0.7462     C
C       0.9937   0.3405   0.2421     C
O       0.9942   0.2904   0.1212     O
H       0.9942   0.4814   0.2979     H
C       0.9944   0.5806   0.6965     C
H       0.9973   0.8023   0.7863     H
