data_I
_chemical_name_common  '/home/zhangsd/repos/MofS-CGCNN/ML/data/WS24/clean_cifs/XUMFIW'
_cell_length_a 10.91580
_cell_length_b 13.32540
_cell_length_c 13.53400
_cell_angle_alpha 118.19700
_cell_angle_beta  103.02800
_cell_angle_gamma 98.45800
_space_group_name_H-M_alt      'P 1'


loop_
_space_group_symop_operation_xyz
  'x, y, z' 

loop_
_atom_site_label
_atom_site_fract_x
_atom_site_fract_y
_atom_site_fract_z
_atom_site_type_symbol
H       0.0015   0.2889    0.492     H
C       0.0065   0.6875   0.7423     C
H       0.0077   0.1458   0.2155     H
Zn     0.01022  0.95572  0.27437    Zn
N       0.0268   0.1607   0.0777     N
C       0.0287   0.8142   0.3924     C
C       0.0308   0.8195   0.8281     C
N       0.0393   0.1152   0.9031     N
C       0.0409   0.8806   0.0366     C
C        0.043   0.5577   0.4053     C
H        0.045   0.1721   0.5859     H
C       0.0611   0.4469   0.0537     C
C       0.0727   0.6927   0.4825     C
C       0.0742   0.5849    0.991     C
N       0.0772   0.8561   0.3335     N
C       0.0785   0.5118   0.6788     C
N       0.0985   0.7504   0.4165     N
H       0.1015   0.4103     0.09     H
C       0.1033   0.6343   0.7532     C
C       0.1143   0.3823   0.3458     C
H       0.1244    0.643   0.9847     H
H       0.1248   0.8591   0.8643     H
H       0.1322   0.9032   0.0687     H
O       0.1323   0.9745   0.6872     O
C       0.1362   0.5317    0.045     C
C       0.1389   0.5039   0.4202     C
H       0.1452    0.477   0.6864     H
H       0.1489   0.7239    0.553     H
C       0.1579   0.1838   0.0891     C
C       0.1648   0.1554   0.9822     C
O       0.1724   0.0803   0.3218     O
H       0.1801   0.3473   0.3553     H
H       0.1859   0.6803   0.8107     H
C       0.1865   0.8169    0.321     C
C          0.2   0.7519   0.3722     C
H         0.22   0.5494   0.4803     H
H       0.2286   0.2136   0.1585     H
O       0.2309     0.16   0.5169     O
C       0.2319   0.0474   0.6994     C
O       0.2348   0.1499   0.7255     O
H       0.2414   0.8328   0.2834     H
H       0.2418   0.1617   0.9642     H
C       0.2573   0.1403   0.4245     C
H       0.2654   0.7151   0.3767     H
H       0.2701   0.3455   0.9043     H
C        0.285   0.5623    0.088     C
C       0.3107   0.4104    0.902     C
H       0.3123   0.5224   0.1296     H
H       0.3235   0.6475   0.1431     H
H       0.3317   0.9515    0.598     H
N       0.3319   0.5238   0.9847     N
C         0.35   0.0027   0.6828     C
N       0.3551   0.4021   0.8159     N
H       0.3566   0.9531   0.7169     H
Zn      0.3652  0.25154  0.68214    Zn
H        0.392   0.1786   0.3566     H
C       0.3926   0.5932   0.9513     C
C        0.396   0.1833    0.431     C
C       0.4059   0.5173   0.8471     C
O       0.4194   0.9181   0.2087     O
H       0.4196    0.676    0.992     H
H        0.442    0.128    0.436     H
H       0.4439   0.5399    0.803     H
O        0.449   0.6321   0.4906     O
C       0.4786   0.3081    0.532     C
O       0.4794    0.342    0.634     O
C       0.4832   0.0926   0.7342     C
O       0.4946   0.1736   0.7127     O
O       0.5054   0.8264   0.2873     O
C       0.5168   0.9074   0.2658     C
O       0.5206    0.658    0.366     O
C       0.5214   0.6919    0.468     C
O        0.551   0.3679   0.5094     O
H       0.5561   0.4601    0.197     H
H        0.558    0.872    0.564     H
H       0.5804    0.324    0.008     H
O       0.5806   0.0819   0.7913     O
C       0.5941   0.4827   0.1529     C
C        0.604   0.8167    0.569     C
C       0.6074   0.4068   0.0487     C
H        0.608   0.8214   0.6434     H
Zn      0.6348  0.74846  0.31786    Zn
H       0.6434   0.0469   0.2831     H
N       0.6449   0.5979   0.1841     N
C         0.65   0.9973   0.3172     C
N       0.6681   0.4762   0.0153     N
H       0.6683   0.0485    0.402     H
H       0.6765   0.3525   0.8569     H
H       0.6877   0.4776   0.8704     H
C       0.6893   0.5896    0.098     C
C        0.715   0.4377    0.912     C
H       0.7299   0.6545   0.0957     H
H       0.7346   0.2849   0.6233     H
C       0.7427   0.8597   0.5755     C
H       0.7582   0.8383   0.0358     H
H       0.7586   0.1672   0.7166     H
O       0.7652   0.8501   0.2745     O
C       0.7681   0.9526   0.3006     C
O       0.7691     0.84   0.4831     O
H       0.7714   0.7864   0.8415     H
H         0.78   0.4506   0.5197     H
C          0.8   0.2481   0.6278     C
C       0.8135   0.1831    0.679     C
H       0.8141   0.3197   0.1893     H
H       0.8199   0.6527   0.6447     H
O       0.8276   0.9197   0.6782     O
C       0.8352   0.8446   0.0178     C
C       0.8421   0.8162   0.9109     C
H       0.8511   0.2761    0.447     H
H       0.8548    0.523   0.3136     H
C       0.8611   0.4961   0.5798     C
C       0.8638   0.4683    0.955     C
O       0.8677   0.0255   0.3128     O
H       0.8678   0.0968   0.9313     H
H       0.8752   0.1409   0.1357     H
H       0.8756    0.357   0.0153     H
C       0.8857   0.6177   0.6542     C
C       0.8967   0.3657   0.2468     C
H       0.8985   0.5897     0.91     H
N       0.9015   0.2496   0.5835     N
C       0.9215   0.4882   0.3212     C
N       0.9228   0.1439   0.6665     N
C       0.9258   0.4151    0.009     C
C       0.9273   0.3073   0.5175     C
C       0.9389   0.5531   0.9463     C
H        0.955   0.8279   0.4141     H
C        0.957   0.4423   0.5947     C
C       0.9591   0.1194   0.9634     C
N       0.9607   0.8848   0.0969     N
C       0.9692   0.1805   0.1719     C
C       0.9713   0.1858   0.6076     C
N       0.9732   0.8393   0.9223     N
Zn     0.98978  0.04428  0.72563    Zn
H       0.9923   0.8542   0.7845     H
C       0.9935   0.3125   0.2577     C
H       0.9985   0.7111    0.508     H
