data_I
_chemical_name_common  '/home/zhangsd/repos/MofS-CGCNN/ML/data/WS24/clean_cifs/XUNJEW'
_cell_length_a 12.03740
_cell_length_b 12.03740
_cell_length_c 12.03740
_cell_angle_alpha 96.23770
_cell_angle_beta  96.23770
_cell_angle_gamma 96.23770
_space_group_name_H-M_alt      'P 1'


loop_
_space_group_symop_operation_xyz
  'x, y, z' 

loop_
_atom_site_label
_atom_site_fract_x
_atom_site_fract_y
_atom_site_fract_z
_atom_site_type_symbol
H       0.0339   0.3917   0.2009     H
O      0.04388  0.62752  0.43874     O
N      0.04497  0.37025  0.79259     N
C      0.04769  0.45669  0.16259     C
C      0.05076   0.4787  0.83705     C
Zn     0.05076  0.75413  0.32624    Zn
H       0.0591   0.4334   0.0863     H
H       0.0635   0.5275   0.6095     H
N      0.08322  0.16631   0.7133     N
H       0.0863   0.0591   0.4334     H
C      0.08767  0.66057  0.53797     C
H       0.0881   0.1009    0.703     H
N      0.09617  0.59337  0.61557     N
H       0.1009    0.703   0.0881     H
H       0.1136   0.5035   0.2002     H
N      0.11656  0.84502  0.47964     N
H       0.1282   0.6202   0.6822     H
C      0.13216   0.7807  0.56469     C
C      0.15119  0.34162  0.81232     C
N      0.15498  0.52036  0.88344     N
C      0.16259  0.04769  0.45669     C
C      0.16295  0.94924   0.5213     C
N      0.16631   0.7133  0.08322     N
C      0.16994  0.22584  0.77054     C
C      0.18768  0.84881  0.65838     C
O      0.19543  0.79481  0.26686     O
H       0.2002   0.1136   0.5035     H
H       0.2009   0.0339   0.3917     H
O      0.20519  0.73314  0.80457     O
N      0.20741  0.95503  0.62975     N
C       0.2193  0.43531  0.86784     C
C      0.22584  0.77054  0.16994     C
C      0.22946  0.83006  0.77416     C
Zn     0.24587  0.67376  0.94924    Zn
O      0.26686  0.19543  0.79481     O
N       0.2867  0.91678  0.83369     N
H        0.297   0.9119   0.8991     H
H       0.3178   0.8718   0.3798     H
Zn     0.32624  0.05076  0.75413    Zn
C      0.33943  0.46203  0.91233     C
C      0.34162  0.81232  0.15119     C
N      0.37025  0.79259  0.04497     N
O      0.37248  0.56126  0.95612     O
H       0.3798   0.3178   0.8718     H
N      0.38443  0.90383  0.40663     N
H       0.3905   0.9365   0.4725     H
H       0.3917   0.2009   0.0339     H
N      0.40663  0.38443  0.90383     N
H       0.4334   0.0863   0.0591     H
C      0.43531  0.86784   0.2193     C
O      0.43874  0.04388  0.62752     O
C      0.45669  0.16259  0.04769     C
C      0.46203  0.91233  0.33943     C
H       0.4725   0.3905   0.9365     H
C       0.4787  0.83705  0.05076     C
N      0.47964  0.11656  0.84502     N
H       0.4965   0.7998   0.8864     H
H       0.5035   0.2002   0.1136     H
N      0.52036  0.88344  0.15498     N
C       0.5213  0.16295  0.94924     C
H       0.5275   0.6095   0.0635     H
C      0.53797  0.08767  0.66057     C
C      0.54331  0.83741  0.95231     C
O      0.56126  0.95612  0.37248     O
C      0.56469  0.13216   0.7807     C
H       0.5666   0.9137   0.9409     H
N      0.59337  0.61557  0.09617     N
H       0.6083   0.7991   0.9661     H
H       0.6095   0.0635   0.5275     H
N      0.61557  0.09617  0.59337     N
H       0.6202   0.6822   0.1282     H
O      0.62752  0.43874  0.04388     O
N      0.62975  0.20741  0.95503     N
C      0.65838  0.18768  0.84881     C
C      0.66057  0.53797  0.08767     C
Zn     0.67376  0.94924  0.24587    Zn
H       0.6822   0.1282   0.6202     H
H        0.703   0.0881   0.1009     H
N       0.7133  0.08322  0.16631     N
O      0.73314  0.80457  0.20519     O
Zn     0.75413  0.32624  0.05076    Zn
C      0.77054  0.16994  0.22584     C
C      0.77416  0.22946  0.83006     C
C       0.7807  0.56469  0.13216     C
N      0.79259  0.04497  0.37025     N
O      0.79481  0.26686  0.19543     O
H       0.7991   0.9661   0.6083     H
H       0.7998   0.8864   0.4965     H
O      0.80457  0.20519  0.73314     O
C      0.81232  0.15119  0.34162     C
C      0.83006  0.77416  0.22946     C
N      0.83369   0.2867  0.91678     N
C      0.83705  0.05076   0.4787     C
C      0.83741  0.95231  0.54331     C
N      0.84502  0.47964  0.11656     N
C      0.84881  0.65838  0.18768     C
C      0.86784   0.2193  0.43531     C
H       0.8718   0.3798   0.3178     H
N      0.88344  0.15498  0.52036     N
H       0.8864   0.4965   0.7998     H
H       0.8991    0.297   0.9119     H
N      0.90383  0.40663  0.38443     N
H       0.9119   0.8991    0.297     H
C      0.91233  0.33943  0.46203     C
H       0.9137   0.9409   0.5666     H
N      0.91678  0.83369   0.2867     N
H       0.9365   0.4725   0.3905     H
H       0.9409   0.5666   0.9137     H
Zn     0.94924  0.24587  0.67376    Zn
C      0.94924   0.5213  0.16295     C
C      0.95231  0.54331  0.83741     C
N      0.95503  0.62975  0.20741     N
O      0.95612  0.37248  0.56126     O
H       0.9661   0.6083   0.7991     H
