data_I
_chemical_name_common  '/home/zhangsd/repos/MofS-CGCNN/ML/data/WS24/clean_cifs/YACWAC'
_cell_length_a  9.63490
_cell_length_b 26.23500
_cell_length_c 28.82100
_cell_angle_alpha 90.00000
_cell_angle_beta  90.00000
_cell_angle_gamma 90.00000
_space_group_name_H-M_alt      'P 1'


loop_
_space_group_symop_operation_xyz
  'x, y, z' 

loop_
_atom_site_label
_atom_site_fract_x
_atom_site_fract_y
_atom_site_fract_z
_atom_site_type_symbol
C          0.0   0.0684   0.0637     C
C          0.0   0.0684   0.9363     C
H          0.0   0.0938   0.3225     H
H          0.0   0.0938   0.6775     H
C          0.0   0.1067   0.1017     C
C          0.0   0.1067   0.8983     C
H          0.0   0.1201   0.2487     H
H          0.0   0.1201   0.7513     H
C          0.0   0.1285   0.3159     C
C          0.0   0.1285   0.6841     C
C          0.0   0.1441   0.2724     C
C          0.0   0.1441   0.7276     C
H          0.0   0.1547   0.3845     H
H          0.0   0.1547   0.6155     H
C          0.0   0.1654   0.3537     C
C          0.0   0.1654   0.6463     C
C          0.0   0.1759   0.1751     C
C          0.0   0.1759   0.8249     C
C          0.0    0.197   0.2607     C
C          0.0    0.197   0.7393     C
C          0.0   0.2143   0.2142     C
C          0.0   0.2143   0.7858     C
C          0.0   0.2146   0.3431     C
C          0.0   0.2146   0.6569     C
C          0.0   0.2327   0.2972     C
C          0.0   0.2327   0.7028     C
H          0.0   0.2382   0.3672     H
H          0.0   0.2382   0.6328     H
H          0.0   0.2618   0.1328     H
H          0.0   0.2618   0.8672     H
C          0.0   0.2673   0.2028     C
C          0.0   0.2673   0.7972     C
C          0.0   0.2854   0.1569     C
C          0.0   0.2854   0.8431     C
C          0.0   0.2857   0.2858     C
C          0.0   0.2857   0.7142     C
C          0.0    0.303   0.2393     C
C          0.0    0.303   0.7607     C
C          0.0   0.3241   0.3249     C
C          0.0   0.3241   0.6751     C
C          0.0   0.3346   0.1463     C
C          0.0   0.3346   0.8537     C
H          0.0   0.3453   0.1155     H
H          0.0   0.3453   0.8845     H
C          0.0   0.3559   0.2276     C
C          0.0   0.3559   0.7724     C
C          0.0   0.3715   0.1841     C
C          0.0   0.3715   0.8159     C
H          0.0   0.3799   0.2513     H
H          0.0   0.3799   0.7487     H
C          0.0   0.3933   0.3983     C
C          0.0   0.3933   0.6017     C
H          0.0   0.4062   0.1775     H
H          0.0   0.4062   0.8225     H
C          0.0   0.4316   0.4363     C
C          0.0   0.4316   0.5637     C
C          0.0   0.5684   0.4363     C
C          0.0   0.5684   0.5637     C
H          0.0   0.5938   0.1775     H
H          0.0   0.5938   0.8225     H
C          0.0   0.6067   0.3983     C
C          0.0   0.6067   0.6017     C
H          0.0   0.6201   0.2513     H
H          0.0   0.6201   0.7487     H
C          0.0   0.6285   0.1841     C
C          0.0   0.6285   0.8159     C
C          0.0   0.6441   0.2276     C
C          0.0   0.6441   0.7724     C
H          0.0   0.6547   0.1155     H
H          0.0   0.6547   0.8845     H
C          0.0   0.6654   0.1463     C
C          0.0   0.6654   0.8537     C
C          0.0   0.6759   0.3249     C
C          0.0   0.6759   0.6751     C
C          0.0    0.697   0.2393     C
C          0.0    0.697   0.7607     C
C          0.0   0.7143   0.2858     C
C          0.0   0.7143   0.7142     C
C          0.0   0.7146   0.1569     C
C          0.0   0.7146   0.8431     C
C          0.0   0.7327   0.2028     C
C          0.0   0.7327   0.7972     C
H          0.0   0.7382   0.1328     H
H          0.0   0.7382   0.8672     H
H          0.0   0.7618   0.3672     H
H          0.0   0.7618   0.6328     H
C          0.0   0.7673   0.2972     C
C          0.0   0.7673   0.7028     C
C          0.0   0.7854   0.3431     C
C          0.0   0.7854   0.6569     C
C          0.0   0.7857   0.2142     C
C          0.0   0.7857   0.7858     C
C          0.0    0.803   0.2607     C
C          0.0    0.803   0.7393     C
C          0.0   0.8241   0.1751     C
C          0.0   0.8241   0.8249     C
C          0.0   0.8346   0.3537     C
C          0.0   0.8346   0.6463     C
H          0.0   0.8453   0.3845     H
H          0.0   0.8453   0.6155     H
C          0.0   0.8559   0.2724     C
C          0.0   0.8559   0.7276     C
C          0.0   0.8715   0.3159     C
C          0.0   0.8715   0.6841     C
H          0.0   0.8799   0.2487     H
H          0.0   0.8799   0.7513     H
C          0.0   0.8933   0.1017     C
C          0.0   0.8933   0.8983     C
H          0.0   0.9062   0.3225     H
H          0.0   0.9062   0.6775     H
C          0.0   0.9316   0.0637     C
C          0.0   0.9316   0.9363     C
C       0.0805   0.0431   0.4741     C
C       0.0805   0.0431   0.5259     C
C       0.0805   0.4569   0.0259     C
C       0.0805   0.4569   0.9741     C
C       0.0805   0.5431   0.0259     C
C       0.0805   0.5431   0.9741     C
C       0.0805   0.9569   0.4741     C
C       0.0805   0.9569   0.5259     C
C       0.0811      0.0   0.4532     C
C       0.0811      0.0   0.5468     C
C       0.0811      0.5   0.0468     C
C       0.0811      0.5   0.9532     C
H        0.114   0.0416   0.4424     H
H        0.114   0.0416   0.5576     H
H        0.114   0.0746   0.4878     H
H        0.114   0.0746   0.5122     H
H        0.114   0.4254   0.0122     H
H        0.114   0.4254   0.9878     H
H        0.114   0.4584   0.0576     H
H        0.114   0.4584   0.9424     H
H        0.114   0.5416   0.0576     H
H        0.114   0.5416   0.9424     H
H        0.114   0.5746   0.0122     H
H        0.114   0.5746   0.9878     H
H        0.114   0.9254   0.4878     H
H        0.114   0.9254   0.5122     H
H        0.114   0.9584   0.4424     H
H        0.114   0.9584   0.5576     H
H       0.1147   0.0299   0.4369     H
H       0.1147   0.0299   0.5631     H
H       0.1147   0.4701   0.0631     H
H       0.1147   0.4701   0.9369     H
H       0.1147   0.5299   0.0631     H
H       0.1147   0.5299   0.9369     H
H       0.1147   0.9701   0.4369     H
H       0.1147   0.9701   0.5631     H
O       0.1152  0.05339  0.04889     O
O       0.1152  0.05339  0.95111     O
O       0.1152  0.44661  0.45111     O
O       0.1152  0.44661  0.54889     O
O       0.1152  0.55339  0.45111     O
O       0.1152  0.55339  0.54889     O
O       0.1152  0.94661  0.04889     O
O       0.1152  0.94661  0.95111     O
C       0.1221   0.1235   0.1211     C
C       0.1221   0.1235   0.8789     C
C       0.1221   0.3765   0.3789     C
C       0.1221   0.3765   0.6211     C
C       0.1221   0.6235   0.3789     C
C       0.1221   0.6235   0.6211     C
C       0.1221   0.8765   0.1211     C
C       0.1221   0.8765   0.8789     C
C       0.1225   0.1581   0.1569     C
C       0.1225   0.1581   0.8431     C
C       0.1225   0.3419   0.3431     C
C       0.1225   0.3419   0.6569     C
C       0.1225   0.6581   0.3431     C
C       0.1225   0.6581   0.6569     C
C       0.1225   0.8419   0.1569     C
C       0.1225   0.8419   0.8431     C
N       0.1347      0.0      0.5     N
N       0.1347      0.5      0.0     N
Zn     0.15255      0.0      0.0    Zn
Zn     0.15255      0.5      0.5    Zn
H        0.206   0.1113   0.1097     H
H        0.206   0.1113   0.8903     H
H        0.206   0.3887   0.3903     H
H        0.206   0.3887   0.6097     H
H        0.206   0.6113   0.3903     H
H        0.206   0.6113   0.6097     H
H        0.206   0.8887   0.1097     H
H        0.206   0.8887   0.8903     H
H       0.2065   0.1696   0.1689     H
H       0.2065   0.1696   0.8311     H
H       0.2065   0.3304   0.3311     H
H       0.2065   0.3304   0.6689     H
H       0.2065   0.6696   0.3311     H
H       0.2065   0.6696   0.6689     H
H       0.2065   0.8304   0.1689     H
H       0.2065   0.8304   0.8311     H
H       0.2935   0.1696   0.3311     H
H       0.2935   0.1696   0.6689     H
H       0.2935   0.3304   0.1689     H
H       0.2935   0.3304   0.8311     H
H       0.2935   0.6696   0.1689     H
H       0.2935   0.6696   0.8311     H
H       0.2935   0.8304   0.3311     H
H       0.2935   0.8304   0.6689     H
H        0.294   0.1113   0.3903     H
H        0.294   0.1113   0.6097     H
H        0.294   0.3887   0.1097     H
H        0.294   0.3887   0.8903     H
H        0.294   0.6113   0.1097     H
H        0.294   0.6113   0.8903     H
H        0.294   0.8887   0.3903     H
H        0.294   0.8887   0.6097     H
Zn     0.34745      0.0      0.5    Zn
Zn     0.34745      0.5      0.0    Zn
N       0.3653      0.0      0.0     N
N       0.3653      0.5      0.5     N
C       0.3775   0.1581   0.3431     C
C       0.3775   0.1581   0.6569     C
C       0.3775   0.3419   0.1569     C
C       0.3775   0.3419   0.8431     C
C       0.3775   0.6581   0.1569     C
C       0.3775   0.6581   0.8431     C
C       0.3775   0.8419   0.3431     C
C       0.3775   0.8419   0.6569     C
C       0.3779   0.1235   0.3789     C
C       0.3779   0.1235   0.6211     C
C       0.3779   0.3765   0.1211     C
C       0.3779   0.3765   0.8789     C
C       0.3779   0.6235   0.1211     C
C       0.3779   0.6235   0.8789     C
C       0.3779   0.8765   0.3789     C
C       0.3779   0.8765   0.6211     C
O       0.3848  0.05339  0.45111     O
O       0.3848  0.05339  0.54889     O
O       0.3848  0.44661  0.04889     O
O       0.3848  0.44661  0.95111     O
O       0.3848  0.55339  0.04889     O
O       0.3848  0.55339  0.95111     O
O       0.3848  0.94661  0.45111     O
O       0.3848  0.94661  0.54889     O
H       0.3853   0.0299   0.0631     H
H       0.3853   0.0299   0.9369     H
H       0.3853   0.4701   0.4369     H
H       0.3853   0.4701   0.5631     H
H       0.3853   0.5299   0.4369     H
H       0.3853   0.5299   0.5631     H
H       0.3853   0.9701   0.0631     H
H       0.3853   0.9701   0.9369     H
H        0.386   0.0416   0.0576     H
H        0.386   0.0416   0.9424     H
H        0.386   0.0746   0.0122     H
H        0.386   0.0746   0.9878     H
H        0.386   0.4254   0.4878     H
H        0.386   0.4254   0.5122     H
H        0.386   0.4584   0.4424     H
H        0.386   0.4584   0.5576     H
H        0.386   0.5416   0.4424     H
H        0.386   0.5416   0.5576     H
H        0.386   0.5746   0.4878     H
H        0.386   0.5746   0.5122     H
H        0.386   0.9254   0.0122     H
H        0.386   0.9254   0.9878     H
H        0.386   0.9584   0.0576     H
H        0.386   0.9584   0.9424     H
C       0.4189      0.0   0.0468     C
C       0.4189      0.0   0.9532     C
C       0.4189      0.5   0.4532     C
C       0.4189      0.5   0.5468     C
C       0.4195   0.0431   0.0259     C
C       0.4195   0.0431   0.9741     C
C       0.4195   0.4569   0.4741     C
C       0.4195   0.4569   0.5259     C
C       0.4195   0.5431   0.4741     C
C       0.4195   0.5431   0.5259     C
C       0.4195   0.9569   0.0259     C
C       0.4195   0.9569   0.9741     C
C          0.5   0.0684   0.4363     C
C          0.5   0.0684   0.5637     C
H          0.5   0.0938   0.1775     H
H          0.5   0.0938   0.8225     H
C          0.5   0.1067   0.3983     C
C          0.5   0.1067   0.6017     C
H          0.5   0.1201   0.2513     H
H          0.5   0.1201   0.7487     H
C          0.5   0.1285   0.1841     C
C          0.5   0.1285   0.8159     C
C          0.5   0.1441   0.2276     C
C          0.5   0.1441   0.7724     C
H          0.5   0.1547   0.1155     H
H          0.5   0.1547   0.8845     H
C          0.5   0.1654   0.1463     C
C          0.5   0.1654   0.8537     C
C          0.5   0.1759   0.3249     C
C          0.5   0.1759   0.6751     C
C          0.5    0.197   0.2393     C
C          0.5    0.197   0.7607     C
C          0.5   0.2143   0.2858     C
C          0.5   0.2143   0.7142     C
C          0.5   0.2146   0.1569     C
C          0.5   0.2146   0.8431     C
C          0.5   0.2327   0.2028     C
C          0.5   0.2327   0.7972     C
H          0.5   0.2382   0.1328     H
H          0.5   0.2382   0.8672     H
H          0.5   0.2618   0.3672     H
H          0.5   0.2618   0.6328     H
C          0.5   0.2673   0.2972     C
C          0.5   0.2673   0.7028     C
C          0.5   0.2854   0.3431     C
C          0.5   0.2854   0.6569     C
C          0.5   0.2857   0.2142     C
C          0.5   0.2857   0.7858     C
C          0.5    0.303   0.2607     C
C          0.5    0.303   0.7393     C
C          0.5   0.3241   0.1751     C
C          0.5   0.3241   0.8249     C
C          0.5   0.3346   0.3537     C
C          0.5   0.3346   0.6463     C
H          0.5   0.3453   0.3845     H
H          0.5   0.3453   0.6155     H
C          0.5   0.3559   0.2724     C
C          0.5   0.3559   0.7276     C
C          0.5   0.3715   0.3159     C
C          0.5   0.3715   0.6841     C
H          0.5   0.3799   0.2487     H
H          0.5   0.3799   0.7513     H
C          0.5   0.3933   0.1017     C
C          0.5   0.3933   0.8983     C
H          0.5   0.4062   0.3225     H
H          0.5   0.4062   0.6775     H
C          0.5   0.4316   0.0637     C
C          0.5   0.4316   0.9363     C
C          0.5   0.5684   0.0637     C
C          0.5   0.5684   0.9363     C
H          0.5   0.5938   0.3225     H
H          0.5   0.5938   0.6775     H
C          0.5   0.6067   0.1017     C
C          0.5   0.6067   0.8983     C
H          0.5   0.6201   0.2487     H
H          0.5   0.6201   0.7513     H
C          0.5   0.6285   0.3159     C
C          0.5   0.6285   0.6841     C
C          0.5   0.6441   0.2724     C
C          0.5   0.6441   0.7276     C
H          0.5   0.6547   0.3845     H
H          0.5   0.6547   0.6155     H
C          0.5   0.6654   0.3537     C
C          0.5   0.6654   0.6463     C
C          0.5   0.6759   0.1751     C
C          0.5   0.6759   0.8249     C
C          0.5    0.697   0.2607     C
C          0.5    0.697   0.7393     C
C          0.5   0.7143   0.2142     C
C          0.5   0.7143   0.7858     C
C          0.5   0.7146   0.3431     C
C          0.5   0.7146   0.6569     C
C          0.5   0.7327   0.2972     C
C          0.5   0.7327   0.7028     C
H          0.5   0.7382   0.3672     H
H          0.5   0.7382   0.6328     H
H          0.5   0.7618   0.1328     H
H          0.5   0.7618   0.8672     H
C          0.5   0.7673   0.2028     C
C          0.5   0.7673   0.7972     C
C          0.5   0.7854   0.1569     C
C          0.5   0.7854   0.8431     C
C          0.5   0.7857   0.2858     C
C          0.5   0.7857   0.7142     C
C          0.5    0.803   0.2393     C
C          0.5    0.803   0.7607     C
C          0.5   0.8241   0.3249     C
C          0.5   0.8241   0.6751     C
C          0.5   0.8346   0.1463     C
C          0.5   0.8346   0.8537     C
H          0.5   0.8453   0.1155     H
H          0.5   0.8453   0.8845     H
C          0.5   0.8559   0.2276     C
C          0.5   0.8559   0.7724     C
C          0.5   0.8715   0.1841     C
C          0.5   0.8715   0.8159     C
H          0.5   0.8799   0.2513     H
H          0.5   0.8799   0.7487     H
C          0.5   0.8933   0.3983     C
C          0.5   0.8933   0.6017     C
H          0.5   0.9062   0.1775     H
H          0.5   0.9062   0.8225     H
C          0.5   0.9316   0.4363     C
C          0.5   0.9316   0.5637     C
C       0.5805   0.0431   0.0259     C
C       0.5805   0.0431   0.9741     C
C       0.5805   0.4569   0.4741     C
C       0.5805   0.4569   0.5259     C
C       0.5805   0.5431   0.4741     C
C       0.5805   0.5431   0.5259     C
C       0.5805   0.9569   0.0259     C
C       0.5805   0.9569   0.9741     C
C       0.5811      0.0   0.0468     C
C       0.5811      0.0   0.9532     C
C       0.5811      0.5   0.4532     C
C       0.5811      0.5   0.5468     C
H        0.614   0.0416   0.0576     H
H        0.614   0.0416   0.9424     H
H        0.614   0.0746   0.0122     H
H        0.614   0.0746   0.9878     H
H        0.614   0.4254   0.4878     H
H        0.614   0.4254   0.5122     H
H        0.614   0.4584   0.4424     H
H        0.614   0.4584   0.5576     H
H        0.614   0.5416   0.4424     H
H        0.614   0.5416   0.5576     H
H        0.614   0.5746   0.4878     H
H        0.614   0.5746   0.5122     H
H        0.614   0.9254   0.0122     H
H        0.614   0.9254   0.9878     H
H        0.614   0.9584   0.0576     H
H        0.614   0.9584   0.9424     H
H       0.6147   0.0299   0.0631     H
H       0.6147   0.0299   0.9369     H
H       0.6147   0.4701   0.4369     H
H       0.6147   0.4701   0.5631     H
H       0.6147   0.5299   0.4369     H
H       0.6147   0.5299   0.5631     H
H       0.6147   0.9701   0.0631     H
H       0.6147   0.9701   0.9369     H
O       0.6152  0.05339  0.45111     O
O       0.6152  0.05339  0.54889     O
O       0.6152  0.44661  0.04889     O
O       0.6152  0.44661  0.95111     O
O       0.6152  0.55339  0.04889     O
O       0.6152  0.55339  0.95111     O
O       0.6152  0.94661  0.45111     O
O       0.6152  0.94661  0.54889     O
C       0.6221   0.1235   0.3789     C
C       0.6221   0.1235   0.6211     C
C       0.6221   0.3765   0.1211     C
C       0.6221   0.3765   0.8789     C
C       0.6221   0.6235   0.1211     C
C       0.6221   0.6235   0.8789     C
C       0.6221   0.8765   0.3789     C
C       0.6221   0.8765   0.6211     C
C       0.6225   0.1581   0.3431     C
C       0.6225   0.1581   0.6569     C
C       0.6225   0.3419   0.1569     C
C       0.6225   0.3419   0.8431     C
C       0.6225   0.6581   0.1569     C
C       0.6225   0.6581   0.8431     C
C       0.6225   0.8419   0.3431     C
C       0.6225   0.8419   0.6569     C
N       0.6347      0.0      0.0     N
N       0.6347      0.5      0.5     N
Zn     0.65255      0.0      0.5    Zn
Zn     0.65255      0.5      0.0    Zn
H        0.706   0.1113   0.3903     H
H        0.706   0.1113   0.6097     H
H        0.706   0.3887   0.1097     H
H        0.706   0.3887   0.8903     H
H        0.706   0.6113   0.1097     H
H        0.706   0.6113   0.8903     H
H        0.706   0.8887   0.3903     H
H        0.706   0.8887   0.6097     H
H       0.7065   0.1696   0.3311     H
H       0.7065   0.1696   0.6689     H
H       0.7065   0.3304   0.1689     H
H       0.7065   0.3304   0.8311     H
H       0.7065   0.6696   0.1689     H
H       0.7065   0.6696   0.8311     H
H       0.7065   0.8304   0.3311     H
H       0.7065   0.8304   0.6689     H
H       0.7935   0.1696   0.1689     H
H       0.7935   0.1696   0.8311     H
H       0.7935   0.3304   0.3311     H
H       0.7935   0.3304   0.6689     H
H       0.7935   0.6696   0.3311     H
H       0.7935   0.6696   0.6689     H
H       0.7935   0.8304   0.1689     H
H       0.7935   0.8304   0.8311     H
H        0.794   0.1113   0.1097     H
H        0.794   0.1113   0.8903     H
H        0.794   0.3887   0.3903     H
H        0.794   0.3887   0.6097     H
H        0.794   0.6113   0.3903     H
H        0.794   0.6113   0.6097     H
H        0.794   0.8887   0.1097     H
H        0.794   0.8887   0.8903     H
Zn     0.84745      0.0      0.0    Zn
Zn     0.84745      0.5      0.5    Zn
N       0.8653      0.0      0.5     N
N       0.8653      0.5      0.0     N
C       0.8775   0.1581   0.1569     C
C       0.8775   0.1581   0.8431     C
C       0.8775   0.3419   0.3431     C
C       0.8775   0.3419   0.6569     C
C       0.8775   0.6581   0.3431     C
C       0.8775   0.6581   0.6569     C
C       0.8775   0.8419   0.1569     C
C       0.8775   0.8419   0.8431     C
C       0.8779   0.1235   0.1211     C
C       0.8779   0.1235   0.8789     C
C       0.8779   0.3765   0.3789     C
C       0.8779   0.3765   0.6211     C
C       0.8779   0.6235   0.3789     C
C       0.8779   0.6235   0.6211     C
C       0.8779   0.8765   0.1211     C
C       0.8779   0.8765   0.8789     C
O       0.8848  0.05339  0.04889     O
O       0.8848  0.05339  0.95111     O
O       0.8848  0.44661  0.45111     O
O       0.8848  0.44661  0.54889     O
O       0.8848  0.55339  0.45111     O
O       0.8848  0.55339  0.54889     O
O       0.8848  0.94661  0.04889     O
O       0.8848  0.94661  0.95111     O
H       0.8853   0.0299   0.4369     H
H       0.8853   0.0299   0.5631     H
H       0.8853   0.4701   0.0631     H
H       0.8853   0.4701   0.9369     H
H       0.8853   0.5299   0.0631     H
H       0.8853   0.5299   0.9369     H
H       0.8853   0.9701   0.4369     H
H       0.8853   0.9701   0.5631     H
H        0.886   0.0416   0.4424     H
H        0.886   0.0416   0.5576     H
H        0.886   0.0746   0.4878     H
H        0.886   0.0746   0.5122     H
H        0.886   0.4254   0.0122     H
H        0.886   0.4254   0.9878     H
H        0.886   0.4584   0.0576     H
H        0.886   0.4584   0.9424     H
H        0.886   0.5416   0.0576     H
H        0.886   0.5416   0.9424     H
H        0.886   0.5746   0.0122     H
H        0.886   0.5746   0.9878     H
H        0.886   0.9254   0.4878     H
H        0.886   0.9254   0.5122     H
H        0.886   0.9584   0.4424     H
H        0.886   0.9584   0.5576     H
C       0.9189      0.0   0.4532     C
C       0.9189      0.0   0.5468     C
C       0.9189      0.5   0.0468     C
C       0.9189      0.5   0.9532     C
C       0.9195   0.0431   0.4741     C
C       0.9195   0.0431   0.5259     C
C       0.9195   0.4569   0.0259     C
C       0.9195   0.4569   0.9741     C
C       0.9195   0.5431   0.0259     C
C       0.9195   0.5431   0.9741     C
C       0.9195   0.9569   0.4741     C
C       0.9195   0.9569   0.5259     C
