data_I
_chemical_name_common  '/home/zhangsd/repos/MofS-CGCNN/ML/data/WS24/clean_cifs/YEGCIY'
_cell_length_a  9.64610
_cell_length_b 14.25700
_cell_length_c 14.54400
_cell_angle_alpha 109.20800
_cell_angle_beta  105.50500
_cell_angle_gamma 92.45300
_space_group_name_H-M_alt      'P 1'


loop_
_space_group_symop_operation_xyz
  'x, y, z' 

loop_
_atom_site_label
_atom_site_fract_x
_atom_site_fract_y
_atom_site_fract_z
_atom_site_type_symbol
H       0.0094   0.8484   0.6055     H
C        0.015   0.9174   0.6203     C
C       0.0229   0.9991   0.9559     C
C       0.0246   0.2828   0.8152     C
H       0.0274   0.3543   0.8358     H
C       0.0303   0.4551   0.5103     C
C       0.0389   0.1273   0.6764     C
H       0.0412   0.6041   0.5306     H
H       0.0434   0.4645   0.5814     H
H       0.0456   0.7502   0.4305     H
H       0.0492   0.9331   0.9272     H
C       0.0515   0.2425   0.7112     C
H       0.0608   0.9942   0.0948     H
H       0.0612   0.6567   0.3417     H
C       0.0643   0.7283   0.3657     C
H       0.0691   0.7475   0.1895     H
C       0.0886   0.9302   0.3323     C
H       0.0985   0.2669   0.8646     H
C        0.101   0.0336   0.3602     C
H        0.114   0.1406   0.9829     H
H       0.1225   0.7117   0.9929     H
H       0.1295   0.3643   0.2302     H
C       0.1395   0.9722   0.6232     C
C        0.146   0.0752   0.9701     C
C       0.1494   0.0758     0.65     C
H       0.1587   0.7596    0.373     H
O       0.1598  0.42167   0.2374     O
H       0.1611   0.4302   0.4184     H
H       0.1668   0.8981    0.319     H
C       0.1716   0.4356   0.4882     C
H        0.174    0.058   0.9079     H
H       0.1742   0.5509   0.8987     H
O       0.1844   0.3461   0.0834     O
H       0.1943    0.372   0.4945     H
C       0.1997    0.291   0.7175     C
C       0.2004   0.4207   0.1569     C
H       0.2029   0.3626   0.7395     H
H        0.203   0.7599   0.9353     H
C       0.2144   0.7424    0.995     C
H       0.2148   0.2668   0.6515     H
H       0.2325   0.1116   0.6502     H
H       0.2365   0.4927   0.0196     H
C       0.2405   0.0931    0.372     C
O       0.2412  0.18049  0.36955     O
H       0.2484   0.8018   0.0548     H
H       0.2502   0.6065   0.8445     H
H       0.2616   0.2028   0.1683     H
C       0.2645   0.9234   0.5959     C
C       0.2656    0.581   0.8994     C
C       0.2698   0.5211   0.1693     C
N       0.2721     0.08   0.0551     N
C        0.274   0.5423   0.0837     C
H       0.2747   0.2741   0.7654     H
N       0.2932   0.5152   0.5572     N
O       0.2988  0.84916  0.62173     O
H       0.3007   0.6055    0.478     H
C       0.3079   0.1468   0.1492     C
O       0.3285  0.95912   0.5489     O
H       0.3298   0.5782    0.323     H
C         0.33   0.5931   0.2654     C
H       0.3302   0.5316    0.891     H
C       0.3306   0.6648   0.9982     C
C       0.3335   0.6368   0.0915     C
C       0.3393   0.5945   0.5387     C
O       0.3574  0.05416  0.38364     O
C       0.3633   0.0091   0.0576     C
H        0.365   0.9523   0.0035     H
H       0.3662   0.4833   0.6879     H
C       0.3737   0.5265    0.653     C
C       0.3903   0.7082   0.1893     C
C       0.3906   0.6873   0.2757     C
N       0.4158   0.1251   0.2125     N
H       0.4292    0.772   0.1967     H
N       0.4452   0.6555   0.6154     N
C       0.4473   0.7671   0.3802     C
C       0.4497   0.0384   0.1542     C
H       0.4561   0.3181   0.9848     H
H       0.4571   0.7403   0.9496     H
O       0.4589  0.73912  0.45499     O
H       0.4649   0.3624   0.2481     H
C       0.4664   0.6118   0.6879     C
C        0.467   0.7221   0.0088     C
O        0.475  0.85544  0.38444     O
H       0.4773   0.9958    0.822     H
Mn     0.48888  0.19312  0.38438    Mn
H       0.4895   0.7818   0.0685     H
Mn         0.5      0.0      0.5    Mn
H       0.5105   0.2182   0.9315     H
Mn     0.51112  0.80688  0.61562    Mn
H       0.5227   0.0042    0.178     H
O        0.525  0.14456  0.61556     O
C        0.533   0.2779   0.9912     C
C       0.5336   0.3882   0.3121     C
H       0.5351   0.6376   0.7519     H
O       0.5411  0.26088  0.54501     O
H       0.5429   0.2597   0.0504     H
H       0.5439   0.6819   0.0152     H
C       0.5503   0.9616   0.8458     C
C       0.5527   0.2329   0.6198     C
N       0.5548   0.3445   0.3846     N
H       0.5708    0.228   0.8033     H
N       0.5842   0.8749   0.7875     N
C       0.6094   0.3127   0.7243     C
C       0.6097   0.2918   0.8107     C
C       0.6263   0.4735    0.347     C
H       0.6338   0.5167   0.3121     H
H        0.635   0.0477   0.9965     H
C       0.6367   0.9909   0.9424     C
O       0.6426  0.94584  0.61636     O
C       0.6607   0.4055   0.4613     C
C       0.6665   0.3632   0.9085     C
C       0.6694   0.3352   0.0018     C
H       0.6698   0.4684    0.109     H
C         0.67   0.4069   0.7346     C
H       0.6702   0.4218    0.677     H
O       0.6715  0.04088   0.4511     O
C       0.6921   0.8532   0.8508     C
H       0.6993   0.3945    0.522     H
O       0.7012  0.15084  0.37827     O
N       0.7068   0.4848   0.4428     N
H       0.7253   0.7259   0.2346     H
C        0.726   0.4577   0.9163     C
N       0.7279     0.92   0.9449     N
C       0.7302   0.4789   0.8307     C
C       0.7344    0.419   0.1006     C
C       0.7355   0.0766   0.4041     C
H       0.7384   0.7972   0.8317     H
H       0.7498   0.3935   0.1555     H
H       0.7516   0.1982   0.9452     H
O       0.7588  0.81951  0.63045     O
C       0.7595   0.9069    0.628     C
H       0.7635   0.5073   0.9804     H
H       0.7675   0.8884   0.3498     H
H       0.7852   0.7332   0.3485     H
C       0.7856   0.2576    0.005     C
H        0.797   0.2401   0.0647     H
H       0.7971   0.6374   0.2605     H
C       0.7996   0.5793   0.8431     C
C       0.8003    0.709   0.2825     C
H       0.8057    0.628   0.5055     H
O       0.8156   0.6539   0.9166     O
H       0.8258   0.4491   0.1013     H
H        0.826    0.942   0.0921     H
C       0.8284   0.5644   0.5118     C
H       0.8332   0.1019    0.681     H
H       0.8389   0.5698   0.5816     H
O       0.8402  0.57833   0.7626     O
H       0.8413   0.2404    0.627     H
C       0.8506   0.9242     0.35     C
C        0.854   0.9248   0.0299     C
C       0.8605   0.0278   0.3768     C
H       0.8705   0.6357   0.7698     H
H       0.8775   0.2883   0.0071     H
H        0.886   0.8594   0.0171     H
C        0.899   0.9664   0.6398     C
H       0.9015   0.7331   0.1354     H
C       0.9114   0.0698   0.6677     C
H       0.9309   0.2525   0.8105     H
C       0.9357   0.2717   0.6343     C
H       0.9388   0.3433   0.6583     H
H       0.9392   0.0058   0.9052     H
C       0.9485   0.7575   0.2888     C
H       0.9508   0.0669   0.0728     H
H       0.9544   0.2498   0.5695     H
H       0.9566   0.5355   0.4186     H
H       0.9588   0.3959   0.4694     H
C       0.9611   0.8727   0.3236     C
C       0.9697   0.5449   0.4897     C
H       0.9726   0.6457   0.1642     H
C       0.9754   0.7172   0.1848     C
C       0.9771   0.0009   0.0441     C
C        0.985   0.0826   0.3797     C
H       0.9906   0.1516   0.3945     H
