data_I
_chemical_name_common  '/home/zhangsd/repos/MofS-CGCNN/ML/data/WS24/clean_cifs/YEGDAR'
_cell_length_a  9.77700
_cell_length_b  9.77700
_cell_length_c 33.61100
_cell_angle_alpha 90.00000
_cell_angle_beta  90.00000
_cell_angle_gamma 90.34100
_space_group_name_H-M_alt      'P 1'


loop_
_space_group_symop_operation_xyz
  'x, y, z' 

loop_
_atom_site_label
_atom_site_fract_x
_atom_site_fract_y
_atom_site_fract_z
_atom_site_type_symbol
O      0.00903  0.10657  0.56231     O
O      0.00903  0.10657  0.93769     O
H       0.0107   0.4665   0.0652     H
H       0.0107   0.4665   0.4348     H
N        0.021    0.593  0.11124     N
N        0.021    0.593  0.38876     N
C       0.0256   0.6148  0.15149     C
C       0.0256   0.6148  0.34851     C
Mn     0.02741  0.95265  0.60742    Mn
Mn     0.02741  0.95265  0.89258    Mn
C       0.0347   0.1295     0.25     C
C       0.0351   0.1219   0.1756     C
C       0.0351   0.1219   0.3244     C
H        0.046    0.393   0.1053     H
H        0.046    0.393   0.3947     H
H       0.0486    0.551   0.1708     H
H       0.0486    0.551   0.3292     H
O      0.04962  0.92898  0.67536     O
O      0.04962  0.92898  0.82464     O
H       0.0542   0.5084   0.7127     H
H       0.0542   0.5084   0.7873     H
C       0.0599   0.5033   0.6842     C
C       0.0599   0.5033   0.8158     C
C       0.0643   0.4739  0.08944     C
C       0.0643   0.4739  0.41056     C
H       0.0681   0.9617     0.75     H
C       0.0893   0.1755  0.21416     C
C       0.0893   0.1755  0.28584     C
O        0.099    0.149  0.14387     O
O        0.099    0.149  0.35613     O
H       0.1017   0.5853   0.6741     H
H       0.1017   0.5853   0.8259     H
O      0.10657  0.00903  0.06231     O
O      0.10657  0.00903  0.43769     O
H       0.1142   0.4258   0.6768     H
H       0.1142   0.4258   0.8232     H
C       0.1219   0.0351   0.6756     C
C       0.1219   0.0351   0.8244     C
C       0.1295   0.0347     0.75     C
O        0.149    0.099  0.64387     O
O        0.149    0.099  0.85613     O
C       0.1755   0.0893  0.71416     C
C       0.1755   0.0893  0.78584     C
C       0.1964     0.27  0.21478     C
C       0.1964     0.27  0.28522     C
O       0.1985   0.9621  0.00501     O
O       0.1985   0.9621  0.49499     O
C       0.2099   0.9809  0.04169     C
C       0.2099   0.9809  0.45831     C
N       0.2118    0.824   0.6025     N
N       0.2118    0.824   0.8975     N
C       0.2157   0.4775  0.07855     C
C       0.2157   0.4775  0.42145     C
H       0.2315   0.2759   0.0705     H
H       0.2315   0.2759   0.4295     H
H       0.2318   0.3012   0.1908     H
H       0.2318   0.3012   0.3092     H
H       0.2368   0.7936   0.5445     H
H       0.2368   0.7936   0.9555     H
H       0.2492   0.6764   0.0836     H
H       0.2492   0.6764   0.4164     H
C       0.2518   0.3192     0.25     C
C         0.27   0.1964  0.71478     C
C         0.27   0.1964  0.78522     C
C       0.2715   0.7801  0.56997     C
C       0.2715   0.7801  0.93003     C
H       0.2734   0.9598   0.1171     H
H       0.2734   0.9598   0.3829     H
H       0.2759   0.2315   0.5705     H
H       0.2759   0.2315   0.9295     H
H       0.2783   0.4533   0.5508     H
H       0.2783   0.4533   0.9492     H
C       0.2794   0.3582   0.0693     C
C       0.2794   0.3582   0.4307     C
H         0.28   0.7994   0.6599     H
H         0.28   0.7994   0.8401     H
H       0.2817   0.9197   0.1784     H
H       0.2817   0.9197   0.3216     H
C       0.2908   0.5936   0.0776     C
C       0.2908   0.5936   0.4224     C
C       0.2955   0.7827  0.63303     C
C       0.2955   0.7827  0.86697     C
C       0.2996   0.5646     0.25     C
H       0.3012   0.2318   0.6908     H
H       0.3012   0.2318   0.8092     H
C       0.3192   0.2518     0.75     C
H       0.3297   0.4875    0.711     H
H       0.3297   0.4875    0.789     H
H       0.3334    0.772   0.1685     H
H       0.3334    0.772   0.3315     H
C       0.3459   0.9697  0.06134     C
C       0.3459   0.9697  0.43866     C
C       0.3534   0.9554  0.10224     C
C       0.3534   0.9554  0.39776     C
C       0.3542   0.8552   0.1824     C
C       0.3542   0.8552   0.3176     C
C       0.3582   0.2794   0.5693     C
C       0.3582   0.2794   0.9307     C
C       0.3601   0.4131   0.5585     C
C       0.3601   0.4131   0.9415     C
H       0.3633   0.8365   0.2103     H
H       0.3633   0.8365   0.2897     H
C       0.3652   0.4262     0.25     C
N        0.387   0.7144  0.57755     N
N        0.387   0.7144  0.92245     N
H        0.393    0.046   0.6053     H
H        0.393    0.046   0.8947     H
H       0.4006   0.4456   0.1913     H
H       0.4006   0.4456   0.3087     H
C       0.4027   0.7151  0.61834     C
C       0.4027   0.7151  0.88166     C
C       0.4131   0.3601   0.0585     C
C       0.4131   0.3601   0.4415     C
C       0.4207   0.4531   0.7143     C
C       0.4207   0.4531   0.7857     C
H       0.4258   0.1142   0.1768     H
H       0.4258   0.1142   0.3232     H
C       0.4262   0.3652     0.75     C
C        0.428   0.5922   0.0679     C
C        0.428   0.5922   0.4321     C
H       0.4398    0.656   0.5222     H
H       0.4398    0.656   0.9778     H
H       0.4456   0.4006   0.6913     H
H       0.4456   0.4006   0.8087     H
C       0.4531   0.4207   0.2143     C
C       0.4531   0.4207   0.2857     C
H       0.4533   0.2783   0.0508     H
H       0.4533   0.2783   0.4492     H
H       0.4604    0.976   0.0111     H
H       0.4604    0.976   0.4889     H
C        0.465    0.968  0.03863     C
C        0.465    0.968  0.46137     C
H       0.4665   0.0107   0.5652     H
H       0.4665   0.0107   0.9348     H
H       0.4737   0.6763   0.6328     H
H       0.4737   0.6763   0.8672     H
C       0.4739   0.0643  0.58944     C
C       0.4739   0.0643  0.91056     C
C        0.474   0.6418  0.54899     C
C        0.474   0.6418  0.95101     C
C       0.4754   0.4906  0.55826     C
C       0.4754   0.4906  0.94174     C
C       0.4775   0.2157  0.57855     C
C       0.4775   0.2157  0.92145     C
H       0.4776   0.6736   0.0681     H
H       0.4776   0.6736   0.4319     H
C       0.4778   0.9346  0.12186     C
C       0.4778   0.9346  0.37814     C
H       0.4835   0.5283   0.7174     H
H       0.4835   0.5283   0.7826     H
H       0.4875   0.3297    0.211     H
H       0.4875   0.3297    0.289     H
C       0.4876    0.915  0.16664     C
C       0.4876    0.915  0.33336     C
C       0.4906   0.4754  0.05826     C
C       0.4906   0.4754  0.44174     C
C       0.5033   0.0599   0.1842     C
C       0.5033   0.0599   0.3158     C
H       0.5084   0.0542   0.2127     H
H       0.5084   0.0542   0.2873     H
H       0.5283   0.4835   0.2174     H
H       0.5283   0.4835   0.2826     H
H        0.551   0.0486   0.6708     H
H        0.551   0.0486   0.8292     H
C       0.5646   0.2996     0.75     C
H       0.5665   0.6781   0.5503     H
H       0.5665   0.6781   0.9497     H
H       0.5853   0.1017   0.1741     H
H       0.5853   0.1017   0.3259     H
C       0.5905   0.9541  0.05735     C
C       0.5905   0.9541  0.44265     C
C       0.5922    0.428   0.5679     C
C       0.5922    0.428   0.9321     C
N        0.593    0.021  0.61124     N
N        0.593    0.021  0.88876     N
C       0.5936   0.2908   0.5776     C
C       0.5936   0.2908   0.9224     C
C       0.5954   0.9364  0.09814     C
C       0.5954   0.9364  0.40186     C
H       0.5993   0.8163   0.2086     H
H       0.5993   0.8163   0.2914     H
H       0.6034   0.7432   0.1671     H
H       0.6034   0.7432   0.3329     H
C       0.6057   0.8301   0.1804     C
C       0.6057   0.8301   0.3196     C
C       0.6148   0.0256  0.65149     C
C       0.6148   0.0256  0.84851     C
C       0.6418    0.474  0.04899     C
C       0.6418    0.474  0.45101     C
H        0.656   0.4398   0.0222     H
H        0.656   0.4398   0.4778     H
H       0.6736   0.4776   0.5681     H
H       0.6736   0.4776   0.9319     H
H       0.6763   0.4737   0.1328     H
H       0.6763   0.4737   0.3672     H
H       0.6764   0.2492   0.5836     H
H       0.6764   0.2492   0.9164     H
H       0.6781   0.5665   0.0503     H
H       0.6781   0.5665   0.4497     H
H       0.6801   0.9253   0.1103     H
H       0.6801   0.9253   0.3897     H
H       0.6899   0.8765   0.1742     H
H       0.6899   0.8765   0.3258     H
C       0.7129   0.9805  0.59513     C
C       0.7129   0.9805  0.90487     C
N       0.7144    0.387  0.07755     N
N       0.7144    0.387  0.42245     N
C       0.7151   0.4027  0.11834     C
C       0.7151   0.4027  0.38166     C
O       0.7171   0.9649   0.5029     O
O       0.7171   0.9649   0.9971     O
C       0.7206   0.9584  0.03371     C
C       0.7206   0.9584  0.46629     C
H       0.7262   0.9668    0.568     H
H       0.7262   0.9668    0.932     H
H       0.7432   0.6034   0.6671     H
H       0.7432   0.6034   0.8329     H
C       0.7459   0.9909  0.65784     C
C       0.7459   0.9909  0.84216     C
H        0.772   0.3334   0.6685     H
H        0.772   0.3334   0.8315     H
C       0.7801   0.2715  0.06997     C
C       0.7801   0.2715  0.43003     C
C       0.7827   0.2955  0.13303     C
C       0.7827   0.2955  0.36697     C
H       0.7877   0.9865   0.6826     H
H       0.7877   0.9865   0.8174     H
H       0.7936   0.2368   0.0445     H
H       0.7936   0.2368   0.4555     H
H       0.7994     0.28   0.1599     H
H       0.7994     0.28   0.3401     H
N       0.8089   0.9627  0.62223     N
N       0.8089   0.9627  0.87777     N
H       0.8163   0.5993   0.7086     H
H       0.8163   0.5993   0.7914     H
N        0.824   0.2118   0.1025     N
N        0.824   0.2118   0.3975     N
C       0.8301   0.6057   0.6804     C
C       0.8301   0.6057   0.8196     C
O      0.83481  0.95899  0.05202     O
O      0.83481  0.95899  0.44798     O
H       0.8365   0.3633   0.7103     H
H       0.8365   0.3633   0.7897     H
C       0.8552   0.3542   0.6824     C
C       0.8552   0.3542   0.8176     C
H       0.8765   0.6899   0.6742     H
H       0.8765   0.6899   0.8258     H
C        0.915   0.4876  0.66664     C
C        0.915   0.4876  0.83336     C
H       0.9197   0.2817   0.6784     H
H       0.9197   0.2817   0.8216     H
H       0.9253   0.6801   0.6103     H
H       0.9253   0.6801   0.8897     H
O      0.92898  0.04962  0.17536     O
O      0.92898  0.04962  0.32464     O
C       0.9346   0.4778  0.62186     C
C       0.9346   0.4778  0.87814     C
C       0.9364   0.5954  0.59814     C
C       0.9364   0.5954  0.90186     C
Mn     0.95265  0.02741  0.10742    Mn
Mn     0.95265  0.02741  0.39258    Mn
C       0.9541   0.5905  0.55735     C
C       0.9541   0.5905  0.94265     C
C       0.9554   0.3534  0.60224     C
C       0.9554   0.3534  0.89776     C
C       0.9584   0.7206  0.53371     C
C       0.9584   0.7206  0.96629     C
O      0.95899  0.83481  0.55202     O
O      0.95899  0.83481  0.94798     O
H       0.9598   0.2734   0.6171     H
H       0.9598   0.2734   0.8829     H
H       0.9617   0.0681     0.25     H
O       0.9621   0.1985  0.50501     O
O       0.9621   0.1985  0.99499     O
N       0.9627   0.8089  0.12223     N
N       0.9627   0.8089  0.37777     N
O       0.9649   0.7171   0.0029     O
O       0.9649   0.7171   0.4971     O
H       0.9668   0.7262    0.068     H
H       0.9668   0.7262    0.432     H
C        0.968    0.465  0.53863     C
C        0.968    0.465  0.96137     C
C       0.9697   0.3459  0.56134     C
C       0.9697   0.3459  0.93866     C
Mn     0.97269  0.97269      0.0    Mn
Mn     0.97269  0.97269      0.5    Mn
H        0.976   0.4604   0.5111     H
H        0.976   0.4604   0.9889     H
C       0.9805   0.7129  0.09513     C
C       0.9805   0.7129  0.40487     C
C       0.9809   0.2099  0.54169     C
C       0.9809   0.2099  0.95831     C
H       0.9865   0.7877   0.1826     H
H       0.9865   0.7877   0.3174     H
C       0.9909   0.7459  0.15784     C
C       0.9909   0.7459  0.34216     C
