data_I
_chemical_name_common  '/home/zhangsd/repos/MofS-CGCNN/ML/data/WS24/clean_cifs/YEMGED'
_cell_length_a 24.64400
_cell_length_b 24.64400
_cell_length_c 24.64400
_cell_angle_alpha 90.00000
_cell_angle_beta  90.00000
_cell_angle_gamma 90.00000
_space_group_name_H-M_alt      'P 1'


loop_
_space_group_symop_operation_xyz
  'x, y, z' 

loop_
_atom_site_label
_atom_site_fract_x
_atom_site_fract_y
_atom_site_fract_z
_atom_site_type_symbol
O          0.0      0.0     0.25     O
O          0.0      0.0     0.75     O
Cu         0.0 0.056127 0.306127    Cu
N          0.0  0.11344  0.36344     N
N          0.0  0.13656  0.88656     N
Cu         0.0 0.193873 0.943873    Cu
O          0.0     0.25      0.0     O
O          0.0     0.25      0.5     O
Cu         0.0 0.306127 0.556127    Cu
N          0.0  0.36344  0.61344     N
N          0.0  0.38656  0.13656     N
Cu         0.0 0.443873 0.193873    Cu
O          0.0      0.5     0.25     O
O          0.0      0.5     0.75     O
Cu         0.0 0.556127 0.806127    Cu
N          0.0  0.61344  0.86344     N
N          0.0  0.63656  0.38656     N
Cu         0.0 0.693873 0.443873    Cu
O          0.0     0.75      0.0     O
O          0.0     0.75      0.5     O
Cu         0.0 0.806127 0.056127    Cu
N          0.0  0.86344  0.11344     N
N          0.0  0.88656  0.63656     N
Cu         0.0 0.943873 0.693873    Cu
N      0.02069  0.06353   0.8395     N
N      0.02069  0.18647   0.4105     N
N      0.02069   0.3395  0.06353     N
N      0.02069   0.4105  0.68647     N
N      0.02069  0.56353   0.3395     N
N      0.02069  0.68647   0.9105     N
N      0.02069   0.8395  0.56353     N
N      0.02069   0.9105  0.18647     N
C      0.03168  0.09222  0.88304     C
C      0.03168  0.15778  0.36696     C
C      0.03168  0.36696  0.65778     C
C      0.03168  0.38304  0.09222     C
C      0.03168  0.59222  0.38304     C
C      0.03168  0.65778  0.86696     C
C      0.03168  0.86696  0.15778     C
C      0.03168  0.88304  0.59222     C
Cu    0.056127      0.0 0.806127    Cu
Cu    0.056127     0.25 0.443873    Cu
Cu    0.056127 0.306127      0.0    Cu
Cu    0.056127 0.443873     0.75    Cu
Cu    0.056127      0.5 0.306127    Cu
Cu    0.056127     0.75 0.943873    Cu
Cu    0.056127 0.806127      0.5    Cu
Cu    0.056127 0.943873     0.25    Cu
H       0.0581    0.083   0.9083     H
H       0.0581    0.167   0.3417     H
H       0.0581   0.3417    0.667     H
H       0.0581   0.4083    0.083     H
H       0.0581    0.583   0.4083     H
H       0.0581    0.667   0.8417     H
H       0.0581   0.8417    0.167     H
H       0.0581   0.9083    0.583     H
N      0.06353  0.02069   0.3395     N
N      0.06353  0.22931   0.9105     N
N      0.06353   0.3395  0.52069     N
N      0.06353   0.4105  0.22931     N
N      0.06353  0.52069   0.8395     N
N      0.06353  0.72931   0.4105     N
N      0.06353   0.8395  0.02069     N
N      0.06353   0.9105  0.72931     N
H        0.083   0.0581   0.4083     H
H        0.083   0.1919   0.8417     H
H        0.083   0.3417   0.1919     H
H        0.083   0.4083   0.5581     H
H        0.083   0.5581   0.9083     H
H        0.083   0.6919   0.3417     H
H        0.083   0.8417   0.6919     H
H        0.083   0.9083   0.0581     H
N       0.0895  0.27069  0.93647     N
N       0.0895  0.31353  0.47931     N
N       0.0895  0.43647  0.27069     N
N       0.0895  0.47931  0.81353     N
N       0.0895  0.77069  0.43647     N
N       0.0895  0.81353  0.97931     N
N       0.0895  0.93647  0.77069     N
N       0.0895  0.97931  0.31353     N
H       0.0917   0.3081    0.333     H
H       0.0917    0.333   0.8081     H
H       0.0917    0.417   0.9419     H
H       0.0917   0.4419    0.417     H
H       0.0917   0.8081    0.833     H
H       0.0917    0.833   0.3081     H
H       0.0917    0.917   0.4419     H
H       0.0917   0.9419    0.917     H
C      0.09222  0.03168  0.38304     C
C      0.09222  0.21832  0.86696     C
C      0.09222  0.36696  0.21832     C
C      0.09222  0.38304  0.53168     C
C      0.09222  0.53168  0.88304     C
C      0.09222  0.71832  0.36696     C
C      0.09222  0.86696  0.71832     C
C      0.09222  0.88304  0.03168     C
N      0.11344      0.0  0.86344     N
N      0.11344     0.25  0.38656     N
N      0.11344  0.36344      0.0     N
N      0.11344  0.38656     0.75     N
N      0.11344      0.5  0.36344     N
N      0.11344     0.75  0.88656     N
N      0.11344  0.86344      0.5     N
N      0.11344  0.88656     0.25     N
C      0.11696  0.28168  0.34222     C
C      0.11696  0.34222  0.78168     C
C      0.11696  0.40778  0.96832     C
C      0.11696  0.46832  0.40778     C
C      0.11696  0.78168  0.84222     C
C      0.11696  0.84222  0.28168     C
C      0.11696  0.90778  0.46832     C
C      0.11696  0.96832  0.90778     C
C      0.13304  0.28168  0.90778     C
C      0.13304  0.34222  0.46832     C
C      0.13304  0.40778  0.28168     C
C      0.13304  0.46832  0.84222     C
C      0.13304  0.78168  0.40778     C
C      0.13304  0.84222  0.96832     C
C      0.13304  0.90778  0.78168     C
C      0.13304  0.96832  0.34222     C
N      0.13656      0.0  0.38656     N
N      0.13656     0.25  0.86344     N
N      0.13656  0.36344     0.25     N
N      0.13656  0.38656      0.5     N
N      0.13656      0.5  0.88656     N
N      0.13656     0.75  0.36344     N
N      0.13656  0.86344     0.75     N
N      0.13656  0.88656      0.0     N
C      0.15778  0.03168  0.86696     C
C      0.15778  0.21832  0.38304     C
C      0.15778  0.36696  0.03168     C
C      0.15778  0.38304  0.71832     C
C      0.15778  0.53168  0.36696     C
C      0.15778  0.71832  0.88304     C
C      0.15778  0.86696  0.53168     C
C      0.15778  0.88304  0.21832     C
H       0.1583   0.3081    0.917     H
H       0.1583    0.333   0.4419     H
H       0.1583    0.417   0.3081     H
H       0.1583   0.4419    0.833     H
H       0.1583   0.8081    0.417     H
H       0.1583    0.833   0.9419     H
H       0.1583    0.917   0.8081     H
H       0.1583   0.9419    0.333     H
N       0.1605  0.27069  0.31353     N
N       0.1605  0.31353  0.77069     N
N       0.1605  0.43647  0.97931     N
N       0.1605  0.47931  0.43647     N
N       0.1605  0.77069  0.81353     N
N       0.1605  0.81353  0.27069     N
N       0.1605  0.93647  0.47931     N
N       0.1605  0.97931  0.93647     N
H        0.167   0.0581   0.8417     H
H        0.167   0.1919   0.4083     H
H        0.167   0.3417   0.0581     H
H        0.167   0.4083   0.6919     H
H        0.167   0.5581   0.3417     H
H        0.167   0.6919   0.9083     H
H        0.167   0.8417   0.5581     H
H        0.167   0.9083   0.1919     H
N      0.18647  0.02069   0.9105     N
N      0.18647  0.22931   0.3395     N
N      0.18647   0.3395  0.72931     N
N      0.18647   0.4105  0.02069     N
N      0.18647  0.52069   0.4105     N
N      0.18647  0.72931   0.8395     N
N      0.18647   0.8395  0.22931     N
N      0.18647   0.9105  0.52069     N
H       0.1919    0.083   0.3417     H
H       0.1919    0.167   0.9083     H
H       0.1919   0.3417    0.583     H
H       0.1919   0.4083    0.167     H
H       0.1919    0.583   0.8417     H
H       0.1919    0.667   0.4083     H
H       0.1919   0.8417    0.083     H
H       0.1919   0.9083    0.667     H
Cu    0.193873      0.0 0.443873    Cu
Cu    0.193873     0.25 0.806127    Cu
Cu    0.193873 0.306127     0.25    Cu
Cu    0.193873 0.443873      0.5    Cu
Cu    0.193873      0.5 0.943873    Cu
Cu    0.193873     0.75 0.306127    Cu
Cu    0.193873 0.806127     0.75    Cu
Cu    0.193873 0.943873      0.0    Cu
C      0.21832  0.09222  0.36696     C
C      0.21832  0.15778  0.88304     C
C      0.21832  0.36696  0.59222     C
C      0.21832  0.38304  0.15778     C
C      0.21832  0.59222  0.86696     C
C      0.21832  0.65778  0.38304     C
C      0.21832  0.86696  0.09222     C
C      0.21832  0.88304  0.65778     C
N      0.22931  0.06353   0.4105     N
N      0.22931  0.18647   0.8395     N
N      0.22931   0.3395  0.18647     N
N      0.22931   0.4105  0.56353     N
N      0.22931  0.56353   0.9105     N
N      0.22931  0.68647   0.3395     N
N      0.22931   0.8395  0.68647     N
N      0.22931   0.9105  0.06353     N
O         0.25      0.0      0.0     O
O         0.25      0.0      0.5     O
Cu        0.25 0.056127 0.943873    Cu
N         0.25  0.11344  0.88656     N
N         0.25  0.13656  0.36344     N
Cu        0.25 0.193873 0.306127    Cu
O         0.25     0.25     0.25     O
O         0.25     0.25     0.75     O
Cu        0.25 0.306127 0.693873    Cu
N         0.25  0.36344  0.63656     N
N         0.25  0.38656  0.11344     N
Cu        0.25 0.443873 0.056127    Cu
O         0.25      0.5      0.0     O
O         0.25      0.5      0.5     O
Cu        0.25 0.556127 0.443873    Cu
N         0.25  0.61344  0.38656     N
N         0.25  0.63656  0.86344     N
Cu        0.25 0.693873 0.806127    Cu
O         0.25     0.75     0.25     O
O         0.25     0.75     0.75     O
Cu        0.25 0.806127 0.193873    Cu
N         0.25  0.86344  0.13656     N
N         0.25  0.88656  0.61344     N
Cu        0.25 0.943873 0.556127    Cu
N      0.27069   0.0895  0.43647     N
N      0.27069   0.1605  0.81353     N
N      0.27069  0.31353   0.1605     N
N      0.27069  0.43647   0.5895     N
N      0.27069   0.5895  0.93647     N
N      0.27069   0.6605  0.31353     N
N      0.27069  0.81353   0.6605     N
N      0.27069  0.93647   0.0895     N
C      0.28168  0.11696  0.84222     C
C      0.28168  0.13304  0.40778     C
C      0.28168  0.34222  0.11696     C
C      0.28168  0.40778  0.63304     C
C      0.28168  0.61696  0.34222     C
C      0.28168  0.63304  0.90778     C
C      0.28168  0.84222  0.61696     C
C      0.28168  0.90778  0.13304     C
Cu    0.306127      0.0 0.056127    Cu
Cu    0.306127 0.056127      0.5    Cu
Cu    0.306127 0.193873     0.75    Cu
Cu    0.306127     0.25 0.193873    Cu
Cu    0.306127      0.5 0.556127    Cu
Cu    0.306127 0.556127      0.0    Cu
Cu    0.306127 0.693873     0.25    Cu
Cu    0.306127     0.75 0.693873    Cu
H       0.3081   0.0917    0.833     H
H       0.3081   0.1583    0.417     H
H       0.3081    0.333   0.0917     H
H       0.3081    0.417   0.6583     H
H       0.3081   0.5917    0.333     H
H       0.3081   0.6583    0.917     H
H       0.3081    0.833   0.5917     H
H       0.3081    0.917   0.1583     H
N      0.31353   0.0895  0.97931     N
N      0.31353   0.1605  0.27069     N
N      0.31353  0.27069   0.6605     N
N      0.31353  0.47931   0.0895     N
N      0.31353   0.5895  0.47931     N
N      0.31353   0.6605  0.77069     N
N      0.31353  0.77069   0.1605     N
N      0.31353  0.97931   0.5895     N
H        0.333   0.0917   0.3081     H
H        0.333   0.1583   0.9419     H
H        0.333   0.3081   0.5917     H
H        0.333   0.4419   0.1583     H
H        0.333   0.5917   0.8081     H
H        0.333   0.6583   0.4419     H
H        0.333   0.8081   0.0917     H
H        0.333   0.9419   0.6583     H
N       0.3395  0.02069  0.56353     N
N       0.3395  0.06353  0.02069     N
N       0.3395  0.18647  0.22931     N
N       0.3395  0.22931  0.68647     N
N       0.3395  0.52069  0.06353     N
N       0.3395  0.56353  0.52069     N
N       0.3395  0.68647  0.72931     N
N       0.3395  0.72931  0.18647     N
H       0.3417   0.0581    0.167     H
H       0.3417    0.083   0.6919     H
H       0.3417    0.167   0.5581     H
H       0.3417   0.1919    0.083     H
H       0.3417   0.5581    0.667     H
H       0.3417    0.583   0.1919     H
H       0.3417    0.667   0.0581     H
H       0.3417   0.6919    0.583     H
C      0.34222  0.11696  0.28168     C
C      0.34222  0.13304  0.96832     C
C      0.34222  0.28168  0.61696     C
C      0.34222  0.46832  0.13304     C
C      0.34222  0.61696  0.78168     C
C      0.34222  0.63304  0.46832     C
C      0.34222  0.78168  0.11696     C
C      0.34222  0.96832  0.63304     C
N      0.36344      0.0  0.11344     N
N      0.36344  0.11344      0.5     N
N      0.36344  0.13656     0.75     N
N      0.36344     0.25  0.13656     N
N      0.36344      0.5  0.61344     N
N      0.36344  0.61344      0.0     N
N      0.36344  0.63656     0.25     N
N      0.36344     0.75  0.63656     N
C      0.36696  0.03168  0.15778     C
C      0.36696  0.09222  0.71832     C
C      0.36696  0.15778  0.53168     C
C      0.36696  0.21832  0.09222     C
C      0.36696  0.53168  0.65778     C
C      0.36696  0.59222  0.21832     C
C      0.36696  0.65778  0.03168     C
C      0.36696  0.71832  0.59222     C
C      0.38304  0.03168  0.59222     C
C      0.38304  0.09222  0.03168     C
C      0.38304  0.15778  0.21832     C
C      0.38304  0.21832  0.65778     C
C      0.38304  0.53168  0.09222     C
C      0.38304  0.59222  0.53168     C
C      0.38304  0.65778  0.71832     C
C      0.38304  0.71832  0.15778     C
N      0.38656      0.0  0.63656     N
N      0.38656  0.11344     0.25     N
N      0.38656  0.13656      0.0     N
N      0.38656     0.25  0.61344     N
N      0.38656      0.5  0.13656     N
N      0.38656  0.61344     0.75     N
N      0.38656  0.63656      0.5     N
N      0.38656     0.75  0.11344     N
C      0.40778  0.11696  0.46832     C
C      0.40778  0.13304  0.78168     C
C      0.40778  0.28168  0.13304     C
C      0.40778  0.46832  0.61696     C
C      0.40778  0.61696  0.96832     C
C      0.40778  0.63304  0.28168     C
C      0.40778  0.78168  0.63304     C
C      0.40778  0.96832  0.11696     C
H       0.4083   0.0581    0.583     H
H       0.4083    0.083   0.0581     H
H       0.4083    0.167   0.1919     H
H       0.4083   0.1919    0.667     H
H       0.4083   0.5581    0.083     H
H       0.4083    0.583   0.5581     H
H       0.4083    0.667   0.6919     H
H       0.4083   0.6919    0.167     H
N       0.4105  0.02069  0.18647     N
N       0.4105  0.06353  0.72931     N
N       0.4105  0.18647  0.52069     N
N       0.4105  0.22931  0.06353     N
N       0.4105  0.52069  0.68647     N
N       0.4105  0.56353  0.22931     N
N       0.4105  0.68647  0.02069     N
N       0.4105  0.72931  0.56353     N
H        0.417   0.0917   0.4419     H
H        0.417   0.1583   0.8081     H
H        0.417   0.3081   0.1583     H
H        0.417   0.4419   0.5917     H
H        0.417   0.5917   0.9419     H
H        0.417   0.6583   0.3081     H
H        0.417   0.8081   0.6583     H
H        0.417   0.9419   0.0917     H
N      0.43647   0.0895  0.77069     N
N      0.43647   0.1605  0.47931     N
N      0.43647  0.27069   0.0895     N
N      0.43647  0.47931   0.6605     N
N      0.43647   0.5895  0.27069     N
N      0.43647   0.6605  0.97931     N
N      0.43647  0.77069   0.5895     N
N      0.43647  0.97931   0.1605     N
H       0.4419   0.0917    0.917     H
H       0.4419   0.1583    0.333     H
H       0.4419    0.333   0.6583     H
H       0.4419    0.417   0.0917     H
H       0.4419   0.5917    0.417     H
H       0.4419   0.6583    0.833     H
H       0.4419    0.833   0.1583     H
H       0.4419    0.917   0.5917     H
Cu    0.443873      0.0 0.693873    Cu
Cu    0.443873 0.056127     0.25    Cu
Cu    0.443873 0.193873      0.0    Cu
Cu    0.443873     0.25 0.556127    Cu
Cu    0.443873      0.5 0.193873    Cu
Cu    0.443873 0.556127     0.75    Cu
Cu    0.443873 0.693873      0.5    Cu
Cu    0.443873     0.75 0.056127    Cu
C      0.46832  0.11696  0.90778     C
C      0.46832  0.13304  0.34222     C
C      0.46832  0.34222  0.63304     C
C      0.46832  0.40778  0.11696     C
C      0.46832  0.61696  0.40778     C
C      0.46832  0.63304  0.84222     C
C      0.46832  0.84222  0.13304     C
C      0.46832  0.90778  0.61696     C
N      0.47931   0.0895  0.31353     N
N      0.47931   0.1605  0.93647     N
N      0.47931  0.31353   0.5895     N
N      0.47931  0.43647   0.1605     N
N      0.47931   0.5895  0.81353     N
N      0.47931   0.6605  0.43647     N
N      0.47931  0.81353   0.0895     N
N      0.47931  0.93647   0.6605     N
O          0.5      0.0     0.25     O
O          0.5      0.0     0.75     O
Cu         0.5 0.056127 0.806127    Cu
N          0.5  0.11344  0.86344     N
N          0.5  0.13656  0.38656     N
Cu         0.5 0.193873 0.443873    Cu
O          0.5     0.25      0.0     O
O          0.5     0.25      0.5     O
Cu         0.5 0.306127 0.056127    Cu
N          0.5  0.36344  0.11344     N
N          0.5  0.38656  0.63656     N
Cu         0.5 0.443873 0.693873    Cu
O          0.5      0.5     0.25     O
O          0.5      0.5     0.75     O
Cu         0.5 0.556127 0.306127    Cu
N          0.5  0.61344  0.36344     N
N          0.5  0.63656  0.88656     N
Cu         0.5 0.693873 0.943873    Cu
O          0.5     0.75      0.0     O
O          0.5     0.75      0.5     O
Cu         0.5 0.806127 0.556127    Cu
N          0.5  0.86344  0.61344     N
N          0.5  0.88656  0.13656     N
Cu         0.5 0.943873 0.193873    Cu
N      0.52069  0.06353   0.3395     N
N      0.52069  0.18647   0.9105     N
N      0.52069   0.3395  0.56353     N
N      0.52069   0.4105  0.18647     N
N      0.52069  0.56353   0.8395     N
N      0.52069  0.68647   0.4105     N
N      0.52069   0.8395  0.06353     N
N      0.52069   0.9105  0.68647     N
C      0.53168  0.09222  0.38304     C
C      0.53168  0.15778  0.86696     C
C      0.53168  0.36696  0.15778     C
C      0.53168  0.38304  0.59222     C
C      0.53168  0.59222  0.88304     C
C      0.53168  0.65778  0.36696     C
C      0.53168  0.86696  0.65778     C
C      0.53168  0.88304  0.09222     C
Cu    0.556127      0.0 0.306127    Cu
Cu    0.556127     0.25 0.943873    Cu
Cu    0.556127 0.306127      0.5    Cu
Cu    0.556127 0.443873     0.25    Cu
Cu    0.556127      0.5 0.806127    Cu
Cu    0.556127     0.75 0.443873    Cu
Cu    0.556127 0.806127      0.0    Cu
Cu    0.556127 0.943873     0.75    Cu
H       0.5581    0.083   0.4083     H
H       0.5581    0.167   0.8417     H
H       0.5581   0.3417    0.167     H
H       0.5581   0.4083    0.583     H
H       0.5581    0.583   0.9083     H
H       0.5581    0.667   0.3417     H
H       0.5581   0.8417    0.667     H
H       0.5581   0.9083    0.083     H
N      0.56353  0.02069   0.8395     N
N      0.56353  0.22931   0.4105     N
N      0.56353   0.3395  0.02069     N
N      0.56353   0.4105  0.72931     N
N      0.56353  0.52069   0.3395     N
N      0.56353  0.72931   0.9105     N
N      0.56353   0.8395  0.52069     N
N      0.56353   0.9105  0.22931     N
H        0.583   0.0581   0.9083     H
H        0.583   0.1919   0.3417     H
H        0.583   0.3417   0.6919     H
H        0.583   0.4083   0.0581     H
H        0.583   0.5581   0.4083     H
H        0.583   0.6919   0.8417     H
H        0.583   0.8417   0.1919     H
H        0.583   0.9083   0.5581     H
N       0.5895  0.27069  0.43647     N
N       0.5895  0.31353  0.97931     N
N       0.5895  0.43647  0.77069     N
N       0.5895  0.47931  0.31353     N
N       0.5895  0.77069  0.93647     N
N       0.5895  0.81353  0.47931     N
N       0.5895  0.93647  0.27069     N
N       0.5895  0.97931  0.81353     N
H       0.5917   0.3081    0.833     H
H       0.5917    0.333   0.3081     H
H       0.5917    0.417   0.4419     H
H       0.5917   0.4419    0.917     H
H       0.5917   0.8081    0.333     H
H       0.5917    0.833   0.8081     H
H       0.5917    0.917   0.9419     H
H       0.5917   0.9419    0.417     H
C      0.59222  0.03168  0.88304     C
C      0.59222  0.21832  0.36696     C
C      0.59222  0.36696  0.71832     C
C      0.59222  0.38304  0.03168     C
C      0.59222  0.53168  0.38304     C
C      0.59222  0.71832  0.86696     C
C      0.59222  0.86696  0.21832     C
C      0.59222  0.88304  0.53168     C
N      0.61344      0.0  0.36344     N
N      0.61344     0.25  0.88656     N
N      0.61344  0.36344      0.5     N
N      0.61344  0.38656     0.25     N
N      0.61344      0.5  0.86344     N
N      0.61344     0.75  0.38656     N
N      0.61344  0.86344      0.0     N
N      0.61344  0.88656     0.75     N
C      0.61696  0.28168  0.84222     C
C      0.61696  0.34222  0.28168     C
C      0.61696  0.40778  0.46832     C
C      0.61696  0.46832  0.90778     C
C      0.61696  0.78168  0.34222     C
C      0.61696  0.84222  0.78168     C
C      0.61696  0.90778  0.96832     C
C      0.61696  0.96832  0.40778     C
C      0.63304  0.28168  0.40778     C
C      0.63304  0.34222  0.96832     C
C      0.63304  0.40778  0.78168     C
C      0.63304  0.46832  0.34222     C
C      0.63304  0.78168  0.90778     C
C      0.63304  0.84222  0.46832     C
C      0.63304  0.90778  0.28168     C
C      0.63304  0.96832  0.84222     C
N      0.63656      0.0  0.88656     N
N      0.63656     0.25  0.36344     N
N      0.63656  0.36344     0.75     N
N      0.63656  0.38656      0.0     N
N      0.63656      0.5  0.38656     N
N      0.63656     0.75  0.86344     N
N      0.63656  0.86344     0.25     N
N      0.63656  0.88656      0.5     N
C      0.65778  0.03168  0.36696     C
C      0.65778  0.21832  0.88304     C
C      0.65778  0.36696  0.53168     C
C      0.65778  0.38304  0.21832     C
C      0.65778  0.53168  0.86696     C
C      0.65778  0.71832  0.38304     C
C      0.65778  0.86696  0.03168     C
C      0.65778  0.88304  0.71832     C
H       0.6583   0.3081    0.417     H
H       0.6583    0.333   0.9419     H
H       0.6583    0.417   0.8081     H
H       0.6583   0.4419    0.333     H
H       0.6583   0.8081    0.917     H
H       0.6583    0.833   0.4419     H
H       0.6583    0.917   0.3081     H
H       0.6583   0.9419    0.833     H
N       0.6605  0.27069  0.81353     N
N       0.6605  0.31353  0.27069     N
N       0.6605  0.43647  0.47931     N
N       0.6605  0.47931  0.93647     N
N       0.6605  0.77069  0.31353     N
N       0.6605  0.81353  0.77069     N
N       0.6605  0.93647  0.97931     N
N       0.6605  0.97931  0.43647     N
H        0.667   0.0581   0.3417     H
H        0.667   0.1919   0.9083     H
H        0.667   0.3417   0.5581     H
H        0.667   0.4083   0.1919     H
H        0.667   0.5581   0.8417     H
H        0.667   0.6919   0.4083     H
H        0.667   0.8417   0.0581     H
H        0.667   0.9083   0.6919     H
N      0.68647  0.02069   0.4105     N
N      0.68647  0.22931   0.8395     N
N      0.68647   0.3395  0.22931     N
N      0.68647   0.4105  0.52069     N
N      0.68647  0.52069   0.9105     N
N      0.68647  0.72931   0.3395     N
N      0.68647   0.8395  0.72931     N
N      0.68647   0.9105  0.02069     N
H       0.6919    0.083   0.8417     H
H       0.6919    0.167   0.4083     H
H       0.6919   0.3417    0.083     H
H       0.6919   0.4083    0.667     H
H       0.6919    0.583   0.3417     H
H       0.6919    0.667   0.9083     H
H       0.6919   0.8417    0.583     H
H       0.6919   0.9083    0.167     H
Cu    0.693873      0.0 0.943873    Cu
Cu    0.693873     0.25 0.306127    Cu
Cu    0.693873 0.306127     0.75    Cu
Cu    0.693873 0.443873      0.0    Cu
Cu    0.693873      0.5 0.443873    Cu
Cu    0.693873     0.75 0.806127    Cu
Cu    0.693873 0.806127     0.25    Cu
Cu    0.693873 0.943873      0.5    Cu
C      0.71832  0.09222  0.86696     C
C      0.71832  0.15778  0.38304     C
C      0.71832  0.36696  0.09222     C
C      0.71832  0.38304  0.65778     C
C      0.71832  0.59222  0.36696     C
C      0.71832  0.65778  0.88304     C
C      0.71832  0.86696  0.59222     C
C      0.71832  0.88304  0.15778     C
N      0.72931  0.06353   0.9105     N
N      0.72931  0.18647   0.3395     N
N      0.72931   0.3395  0.68647     N
N      0.72931   0.4105  0.06353     N
N      0.72931  0.56353   0.4105     N
N      0.72931  0.68647   0.8395     N
N      0.72931   0.8395  0.18647     N
N      0.72931   0.9105  0.56353     N
O         0.75      0.0      0.0     O
O         0.75      0.0      0.5     O
Cu        0.75 0.056127 0.443873    Cu
N         0.75  0.11344  0.38656     N
N         0.75  0.13656  0.86344     N
Cu        0.75 0.193873 0.806127    Cu
O         0.75     0.25     0.25     O
O         0.75     0.25     0.75     O
Cu        0.75 0.306127 0.193873    Cu
N         0.75  0.36344  0.13656     N
N         0.75  0.38656  0.61344     N
Cu        0.75 0.443873 0.556127    Cu
O         0.75      0.5      0.0     O
O         0.75      0.5      0.5     O
Cu        0.75 0.556127 0.943873    Cu
N         0.75  0.61344  0.88656     N
N         0.75  0.63656  0.36344     N
Cu        0.75 0.693873 0.306127    Cu
O         0.75     0.75     0.25     O
O         0.75     0.75     0.75     O
Cu        0.75 0.806127 0.693873    Cu
N         0.75  0.86344  0.63656     N
N         0.75  0.88656  0.11344     N
Cu        0.75 0.943873 0.056127    Cu
N      0.77069   0.0895  0.93647     N
N      0.77069   0.1605  0.31353     N
N      0.77069  0.31353   0.6605     N
N      0.77069  0.43647   0.0895     N
N      0.77069   0.5895  0.43647     N
N      0.77069   0.6605  0.81353     N
N      0.77069  0.81353   0.1605     N
N      0.77069  0.93647   0.5895     N
C      0.78168  0.11696  0.34222     C
C      0.78168  0.13304  0.90778     C
C      0.78168  0.34222  0.61696     C
C      0.78168  0.40778  0.13304     C
C      0.78168  0.61696  0.84222     C
C      0.78168  0.63304  0.40778     C
C      0.78168  0.84222  0.11696     C
C      0.78168  0.90778  0.63304     C
Cu    0.806127      0.0 0.556127    Cu
Cu    0.806127 0.056127      0.0    Cu
Cu    0.806127 0.193873     0.25    Cu
Cu    0.806127     0.25 0.693873    Cu
Cu    0.806127      0.5 0.056127    Cu
Cu    0.806127 0.556127      0.5    Cu
Cu    0.806127 0.693873     0.75    Cu
Cu    0.806127     0.75 0.193873    Cu
H       0.8081   0.0917    0.333     H
H       0.8081   0.1583    0.917     H
H       0.8081    0.333   0.5917     H
H       0.8081    0.417   0.1583     H
H       0.8081   0.5917    0.833     H
H       0.8081   0.6583    0.417     H
H       0.8081    0.833   0.0917     H
H       0.8081    0.917   0.6583     H
N      0.81353   0.0895  0.47931     N
N      0.81353   0.1605  0.77069     N
N      0.81353  0.27069   0.1605     N
N      0.81353  0.47931   0.5895     N
N      0.81353   0.5895  0.97931     N
N      0.81353   0.6605  0.27069     N
N      0.81353  0.77069   0.6605     N
N      0.81353  0.97931   0.0895     N
H        0.833   0.0917   0.8081     H
H        0.833   0.1583   0.4419     H
H        0.833   0.3081   0.0917     H
H        0.833   0.4419   0.6583     H
H        0.833   0.5917   0.3081     H
H        0.833   0.6583   0.9419     H
H        0.833   0.8081   0.5917     H
H        0.833   0.9419   0.1583     H
N       0.8395  0.02069  0.06353     N
N       0.8395  0.06353  0.52069     N
N       0.8395  0.18647  0.72931     N
N       0.8395  0.22931  0.18647     N
N       0.8395  0.52069  0.56353     N
N       0.8395  0.56353  0.02069     N
N       0.8395  0.68647  0.22931     N
N       0.8395  0.72931  0.68647     N
H       0.8417   0.0581    0.667     H
H       0.8417    0.083   0.1919     H
H       0.8417    0.167   0.0581     H
H       0.8417   0.1919    0.583     H
H       0.8417   0.5581    0.167     H
H       0.8417    0.583   0.6919     H
H       0.8417    0.667   0.5581     H
H       0.8417   0.6919    0.083     H
C      0.84222  0.11696  0.78168     C
C      0.84222  0.13304  0.46832     C
C      0.84222  0.28168  0.11696     C
C      0.84222  0.46832  0.63304     C
C      0.84222  0.61696  0.28168     C
C      0.84222  0.63304  0.96832     C
C      0.84222  0.78168  0.61696     C
C      0.84222  0.96832  0.13304     C
N      0.86344      0.0  0.61344     N
N      0.86344  0.11344      0.0     N
N      0.86344  0.13656     0.25     N
N      0.86344     0.25  0.63656     N
N      0.86344      0.5  0.11344     N
N      0.86344  0.61344      0.5     N
N      0.86344  0.63656     0.75     N
N      0.86344     0.75  0.13656     N
C      0.86696  0.03168  0.65778     C
C      0.86696  0.09222  0.21832     C
C      0.86696  0.15778  0.03168     C
C      0.86696  0.21832  0.59222     C
C      0.86696  0.53168  0.15778     C
C      0.86696  0.59222  0.71832     C
C      0.86696  0.65778  0.53168     C
C      0.86696  0.71832  0.09222     C
C      0.88304  0.03168  0.09222     C
C      0.88304  0.09222  0.53168     C
C      0.88304  0.15778  0.71832     C
C      0.88304  0.21832  0.15778     C
C      0.88304  0.53168  0.59222     C
C      0.88304  0.59222  0.03168     C
C      0.88304  0.65778  0.21832     C
C      0.88304  0.71832  0.65778     C
N      0.88656      0.0  0.13656     N
N      0.88656  0.11344     0.75     N
N      0.88656  0.13656      0.5     N
N      0.88656     0.25  0.11344     N
N      0.88656      0.5  0.63656     N
N      0.88656  0.61344     0.25     N
N      0.88656  0.63656      0.0     N
N      0.88656     0.75  0.61344     N
C      0.90778  0.11696  0.96832     C
C      0.90778  0.13304  0.28168     C
C      0.90778  0.28168  0.63304     C
C      0.90778  0.46832  0.11696     C
C      0.90778  0.61696  0.46832     C
C      0.90778  0.63304  0.78168     C
C      0.90778  0.78168  0.13304     C
C      0.90778  0.96832  0.61696     C
H       0.9083   0.0581    0.083     H
H       0.9083    0.083   0.5581     H
H       0.9083    0.167   0.6919     H
H       0.9083   0.1919    0.167     H
H       0.9083   0.5581    0.583     H
H       0.9083    0.583   0.0581     H
H       0.9083    0.667   0.1919     H
H       0.9083   0.6919    0.667     H
N       0.9105  0.02069  0.68647     N
N       0.9105  0.06353  0.22931     N
N       0.9105  0.18647  0.02069     N
N       0.9105  0.22931  0.56353     N
N       0.9105  0.52069  0.18647     N
N       0.9105  0.56353  0.72931     N
N       0.9105  0.68647  0.52069     N
N       0.9105  0.72931  0.06353     N
H        0.917   0.0917   0.9419     H
H        0.917   0.1583   0.3081     H
H        0.917   0.3081   0.6583     H
H        0.917   0.4419   0.0917     H
H        0.917   0.5917   0.4419     H
H        0.917   0.6583   0.8081     H
H        0.917   0.8081   0.1583     H
H        0.917   0.9419   0.5917     H
N      0.93647   0.0895  0.27069     N
N      0.93647   0.1605  0.97931     N
N      0.93647  0.27069   0.5895     N
N      0.93647  0.47931   0.1605     N
N      0.93647   0.5895  0.77069     N
N      0.93647   0.6605  0.47931     N
N      0.93647  0.77069   0.0895     N
N      0.93647  0.97931   0.6605     N
H       0.9419   0.0917    0.417     H
H       0.9419   0.1583    0.833     H
H       0.9419    0.333   0.1583     H
H       0.9419    0.417   0.5917     H
H       0.9419   0.5917    0.917     H
H       0.9419   0.6583    0.333     H
H       0.9419    0.833   0.6583     H
H       0.9419    0.917   0.0917     H
Cu    0.943873      0.0 0.193873    Cu
Cu    0.943873 0.056127     0.75    Cu
Cu    0.943873 0.193873      0.5    Cu
Cu    0.943873     0.25 0.056127    Cu
Cu    0.943873      0.5 0.693873    Cu
Cu    0.943873 0.556127     0.25    Cu
Cu    0.943873 0.693873      0.0    Cu
Cu    0.943873     0.75 0.556127    Cu
C      0.96832  0.11696  0.40778     C
C      0.96832  0.13304  0.84222     C
C      0.96832  0.34222  0.13304     C
C      0.96832  0.40778  0.61696     C
C      0.96832  0.61696  0.90778     C
C      0.96832  0.63304  0.34222     C
C      0.96832  0.84222  0.63304     C
C      0.96832  0.90778  0.11696     C
N      0.97931   0.0895  0.81353     N
N      0.97931   0.1605  0.43647     N
N      0.97931  0.31353   0.0895     N
N      0.97931  0.43647   0.6605     N
N      0.97931   0.5895  0.31353     N
N      0.97931   0.6605  0.93647     N
N      0.97931  0.81353   0.5895     N
N      0.97931  0.93647   0.1605     N
