data_I
_chemical_name_common  '/home/zhangsd/repos/MofS-CGCNN/ML/data/WS24/clean_cifs/YEZKIZ'
_cell_length_a 13.54240
_cell_length_b 13.54240
_cell_length_c 13.54240
_cell_angle_alpha 102.85800
_cell_angle_beta  102.85800
_cell_angle_gamma 102.85800
_space_group_name_H-M_alt      'P 1'


loop_
_space_group_symop_operation_xyz
  'x, y, z' 

loop_
_atom_site_label
_atom_site_fract_x
_atom_site_fract_y
_atom_site_fract_z
_atom_site_type_symbol
H       0.0186   0.1498   0.3478     H
N      0.03902  0.13002  0.48909     N
O      0.05718  0.33902   0.8277     O
C      0.06898   0.1448  0.40532     C
H       0.0929   0.1133   0.6304     H
C      0.11256   0.1235  0.57024     C
H       0.1133   0.6304   0.0929     H
N      0.11406  0.51573  0.73148     N
Ni     0.11593      0.5  0.88407    Ni
H       0.1174   0.6655   0.7581     H
H       0.1186   0.3701   0.6755     H
C      0.12094  0.60718  0.70764     C
C       0.1221  0.43455  0.65924     C
C       0.1235  0.57024  0.11256     C
H       0.1266   0.6282   0.2642     H
N      0.13002  0.48909  0.03902     N
C       0.1308   0.5692   0.2152     C
C        0.133   0.6199   0.6126     C
C      0.13527  0.44055  0.56309     C
H       0.1369   0.6857    0.599     H
C       0.1392  0.53513  0.53628     C
H       0.1416   0.3817   0.5155     H
C       0.1446   0.4812   0.2465     C
C       0.1448  0.40532  0.06898     C
C       0.1459  0.54683  0.43277     C
C       0.1473   0.4719   0.3527     C
H       0.1495   0.6139   0.4227     H
H       0.1498   0.3478   0.0186     H
H       0.1504   0.4066   0.3648     H
C       0.1532   0.3984   0.1704     C
H       0.1648   0.3377    0.188     H
C       0.1704   0.1532   0.3984     C
O       0.1723  0.66098  0.94282     O
H        0.188   0.1648   0.3377     H
Cr      0.2103   0.7897      0.0    Cr
C       0.2152   0.1308   0.5692     C
H       0.2419   0.3345   0.8826     H
C       0.2465   0.1446   0.4812     C
H       0.2642   0.1266   0.6282     H
N      0.26852  0.48427  0.88594     N
C      0.29236  0.39282  0.87906     C
H       0.3143   0.8631    0.401     H
H       0.3245   0.6299   0.8814     H
H       0.3345   0.8826   0.2419     H
H       0.3377    0.188   0.1648     H
O      0.33902   0.8277  0.05718     O
C      0.34076  0.56545   0.8779     C
H       0.3478   0.0186   0.1498     H
C       0.3527   0.1473   0.4719     C
H       0.3648   0.1504   0.4066     H
H       0.3696   0.8867   0.9071     H
H       0.3701   0.6755   0.1186     H
H       0.3718   0.8734   0.7358     H
C       0.3801    0.867   0.3874     C
H       0.3817   0.5155   0.1416     H
H       0.3861   0.8505   0.5773     H
C       0.3874   0.3801    0.867     C
C      0.39282  0.87906  0.29236     C
C       0.3984   0.1704   0.1532     C
H        0.401   0.3143   0.8631     H
C      0.40532  0.06898   0.1448     C
H       0.4066   0.3648   0.1504     H
H       0.4227   0.1495   0.6139     H
C      0.42976   0.8765  0.88744     C
C       0.4308   0.8692   0.7848     C
C      0.43277   0.1459  0.54683     C
C      0.43455  0.65924   0.1221     C
C      0.43691  0.55945  0.86473     C
C      0.44055  0.56309  0.13527     C
C      0.45317   0.8541  0.56723     C
C      0.46372  0.46487   0.8608     C
C      0.46487   0.8608  0.46372     C
C       0.4719   0.3527   0.1473     C
C       0.4812   0.2465   0.1446     C
N      0.48427  0.88594  0.26852     N
H       0.4845   0.6183   0.8584     H
N      0.48909  0.03902  0.13002     N
Ni         0.5  0.88407  0.11593    Ni
N      0.51091  0.86998  0.96098     N
H       0.5155   0.1416   0.3817     H
N      0.51573  0.73148  0.11406     N
C       0.5188   0.8554   0.7535     C
C       0.5281   0.8527   0.6473     C
C      0.53513  0.53628   0.1392     C
C      0.53628   0.1392  0.53513     C
C      0.54683  0.43277   0.1459     C
C      0.55945  0.86473  0.43691     C
C      0.56309  0.13527  0.44055     C
C      0.56545   0.8779  0.34076     C
C      0.56723  0.45317   0.8541     C
C       0.5692   0.2152   0.1308     C
C      0.57024  0.11256   0.1235     C
H       0.5773   0.3861   0.8505     H
H       0.5934   0.8496   0.6352     H
C      0.59468   0.8552  0.93102     C
H        0.599   0.1369   0.6857     H
C       0.6016   0.8468   0.8296     C
C      0.60718  0.70764  0.12094     C
C       0.6126    0.133   0.6199     C
H       0.6139   0.4227   0.1495     H
H       0.6183   0.8584   0.4845     H
C       0.6199   0.6126    0.133     C
H       0.6282   0.2642   0.1266     H
H       0.6299   0.8814   0.3245     H
H       0.6304   0.0929   0.1133     H
H       0.6352   0.5934   0.8496     H
C       0.6473   0.5281   0.8527     C
H       0.6522   0.8502   0.9814     H
C      0.65924   0.1221  0.43455     C
O      0.66098  0.94282   0.1723     O
H       0.6623   0.8352    0.812     H
H       0.6655   0.7581   0.1174     H
H       0.6755   0.1186   0.3701     H
H       0.6857    0.599   0.1369     H
C      0.70764  0.12094  0.60718     C
N      0.73148  0.11406  0.51573     N
H       0.7358   0.3718   0.8734     H
C       0.7535   0.5188   0.8554     C
H       0.7581   0.1174   0.6655     H
C       0.7848   0.4308   0.8692     C
Cr      0.7897     -0.0   0.2103    Cr
H        0.812   0.6623   0.8352     H
O       0.8277  0.05718  0.33902     O
C       0.8296   0.6016   0.8468     C
H       0.8352    0.812   0.6623     H
C       0.8468   0.8296   0.6016     C
H       0.8496   0.6352   0.5934     H
H       0.8502   0.9814   0.6522     H
H       0.8505   0.5773   0.3861     H
C       0.8527   0.6473   0.5281     C
C       0.8541  0.56723  0.45317     C
C       0.8552  0.93102  0.59468     C
C       0.8554   0.7535   0.5188     C
H       0.8584   0.4845   0.6183     H
C       0.8608  0.46372  0.46487     C
H       0.8631    0.401   0.3143     H
C      0.86473  0.43691  0.55945     C
C        0.867   0.3874   0.3801     C
C       0.8692   0.7848   0.4308     C
N      0.86998  0.96098  0.51091     N
H       0.8734   0.7358   0.3718     H
C       0.8765  0.88744  0.42976     C
C       0.8779  0.34076  0.56545     C
C      0.87906  0.29236  0.39282     C
H       0.8814   0.3245   0.6299     H
H       0.8826   0.2419   0.3345     H
Ni     0.88407  0.11593      0.5    Ni
N      0.88594  0.26852  0.48427     N
H       0.8867   0.9071   0.3696     H
C      0.88744  0.42976   0.8765     C
H       0.9071   0.3696   0.8867     H
C      0.93102  0.59468   0.8552     C
O      0.94282   0.1723  0.66098     O
N      0.96098  0.51091  0.86998     N
H       0.9814   0.6522   0.8502     H
Cr         1.0   0.2103   0.7897    Cr
