data_I
_chemical_name_common  '/home/zhangsd/repos/MofS-CGCNN/ML/data/WS24/clean_cifs/YIKGEF01'
_cell_length_a  6.55480
_cell_length_b  8.50260
_cell_length_c 10.02000
_cell_angle_alpha 109.39000
_cell_angle_beta  96.87000
_cell_angle_gamma 100.86000
_space_group_name_H-M_alt      'P 1'


loop_
_space_group_symop_operation_xyz
  'x, y, z' 

loop_
_atom_site_label
_atom_site_fract_x
_atom_site_fract_y
_atom_site_fract_z
_atom_site_type_symbol
H        0.003    0.849    0.032     H
H         0.02     0.24    0.879     H
O       0.0462   0.1666  0.59678     O
O       0.0519   0.8432   0.1097     O
Cd     0.06841  0.06451 0.328577    Cd
O       0.1409   0.2084    0.164     O
C       0.1507   0.3173    0.673     C
N       0.1898   0.3618   0.4502     N
O        0.202   0.3783  0.80777     O
C       0.2112   0.4369   0.5935     C
C       0.2201   0.3666   0.2128     C
C       0.2467   0.4602    0.374     C
O       0.2775   0.4582   0.1431     O
C       0.2828   0.6135   0.6653     C
H       0.2919   0.6628   0.7644     H
O       0.2952   0.9816   0.7326     O
H        0.319    0.772     0.06     H
C       0.3253   0.6371   0.4376     C
C       0.3406   0.7147   0.5853     C
H       0.3668   0.7021   0.3825     H
O       0.4068   0.0199   0.3533     O
C       0.4172   0.9072   0.6595     C
O       0.4338   0.7577   0.0405     O
H        0.469    0.171    0.896     H
Cd         0.5      0.5      0.0    Cd
H        0.531    0.829    0.104     H
O       0.5662   0.2423   0.9595     O
C       0.5828   0.0928   0.3405     C
O       0.5932   0.9801   0.6467     O
H       0.6332   0.2979   0.6175     H
C       0.6594   0.2853   0.4147     C
C       0.6747   0.3629   0.5624     C
H        0.681    0.228     0.94     H
O       0.7048   0.0184   0.2674     O
H       0.7081   0.3372   0.2356     H
C       0.7172   0.3865   0.3347     C
O       0.7225   0.5418   0.8569     O
C       0.7533   0.5398    0.626     C
C       0.7799   0.6334   0.7872     C
C       0.7888   0.5631   0.4065     C
O        0.798   0.6217  0.19223     O
N       0.8102   0.6382   0.5498     N
C       0.8493   0.6827    0.327     C
O       0.8591   0.7916    0.836     O
Cd     0.93159  0.93549 0.671423    Cd
O       0.9481   0.1568   0.8903     O
O       0.9538   0.8334  0.40322     O
H         0.98     0.76    0.121     H
H        0.997    0.151    0.968     H
