data_I
_chemical_name_common  '/home/zhangsd/repos/MofS-CGCNN/ML/data/WS24/clean_cifs/YOYNUX'
_cell_length_a 16.80200
_cell_length_b 16.80200
_cell_length_c 13.96000
_cell_angle_alpha 90.00000
_cell_angle_beta  90.00000
_cell_angle_gamma 120.00000
_space_group_name_H-M_alt      'P 1'


loop_
_space_group_symop_operation_xyz
  'x, y, z' 

loop_
_atom_site_label
_atom_site_fract_x
_atom_site_fract_y
_atom_site_fract_z
_atom_site_type_symbol
H       0.0116   0.2366   0.0458     H
H       0.0116    0.775   0.4542     H
H       0.0201   0.3383   0.9279     H
H       0.0201   0.6818   0.5721     H
C       0.0277   0.3414   0.4721     C
C       0.0277   0.6863   0.0279     C
C      0.03331  0.49191  0.83121     C
C      0.03331   0.5414  0.66879     C
C       0.0338   0.2865    0.542     C
C       0.0338   0.7473    0.958     C
C      0.06175  0.50556  0.33055     C
C      0.06175  0.55619  0.16945     C
H       0.0653   0.4918   0.8855     H
H       0.0653   0.5735   0.6145     H
C       0.0805  0.54025     0.75     C
C       0.0963   0.4325   0.4714     C
C       0.0963   0.6638   0.0286     C
C       0.1067   0.3213   0.6072     C
C       0.1067   0.7854   0.8928     C
H       0.1089   0.2819   0.6525     H
H       0.1089    0.827   0.8475     H
C         0.11    0.555     0.25     C
N       0.1123  0.50644  0.41281     N
N       0.1123  0.60586  0.08719     N
C         0.17   0.4682   0.5365     C
C         0.17   0.7018   0.9635     C
H        0.173   0.2819   0.8475     H
H        0.173   0.8911   0.6525     H
H       0.1739  0.58695     0.25     H
C       0.1754    0.412   0.6064     C
C       0.1754   0.7634   0.8936     C
C       0.1845  0.59225     0.75     C
C      0.19114  0.57979  0.44469     C
C      0.19114  0.61135  0.05531     C
H       0.2113   0.4346   0.8494     H
H       0.2113   0.7767   0.6506     H
C       0.2146   0.3213   0.8928     C
C       0.2146   0.8933   0.6072     C
H       0.2164   0.5785   0.0828     H
H       0.2164   0.6379   0.4172     H
O      0.22227  0.57543   0.8185     O
O      0.22227  0.64684   0.6815     O
H       0.2233   0.4346   0.6506     H
H       0.2233   0.7887   0.8494     H
H        0.225   0.2366   0.4542     H
H        0.225   0.9884   0.0458     H
N      0.22851  0.56156  0.51762     N
N      0.22851  0.66695  0.98238     N
H       0.2366   0.0116   0.5458     H
H       0.2366    0.225   0.9542     H
C       0.2366    0.412   0.8936     C
C       0.2366   0.8246   0.6064     C
C       0.2527   0.2865    0.958     C
C       0.2527   0.9662    0.542     C
H       0.2819   0.1089   0.1525     H
H       0.2819    0.173   0.3475     H
C       0.2865   0.0338    0.042     C
C       0.2865   0.2527    0.458     C
C       0.2982   0.4682   0.9635     C
C       0.2982     0.83   0.5365     C
C       0.3137   0.3414   0.0279     C
C       0.3137   0.9723   0.4721     C
H       0.3182   0.3383   0.5721     H
H       0.3182   0.9799   0.9279     H
C       0.3213   0.1067   0.1072     C
C       0.3213   0.2146   0.3928     C
N      0.33305  0.56156  0.98238     N
N      0.33305  0.77149  0.51762     N
Ni     0.33333  0.66667  0.60348    Ni
Ni     0.33333  0.66667  0.89652    Ni
C       0.3362   0.4325   0.0286     C
C       0.3362   0.9037   0.4714     C
H       0.3383   0.0201   0.4279     H
H       0.3383   0.3182   0.0721     H
C       0.3414   0.0277   0.9721     C
C       0.3414   0.3137   0.5279     C
O      0.35316  0.57543   0.6815     O
O      0.35316  0.77773   0.8185     O
H       0.3621   0.5785   0.4172     H
H       0.3621   0.7836   0.0828     H
C      0.38865  0.57979  0.05531     C
C      0.38865  0.80886  0.44469     C
N      0.39414  0.50644  0.08719     N
N      0.39414   0.8877  0.41281     N
C      0.40775  0.59225     0.75     C
C      0.40775   0.8155     0.75     C
C        0.412   0.1754   0.1064     C
C        0.412   0.2366   0.3936     C
H      0.41305  0.58695     0.25     H
H      0.41305   0.8261     0.25     H
C      0.42021  0.61135  0.44469     C
C      0.42021  0.80886  0.05531     C
H       0.4215   0.6379   0.0828     H
H       0.4215   0.7836   0.4172     H
O      0.42457  0.64684   0.8185     O
O      0.42457  0.77773   0.6815     O
H       0.4265   0.4918   0.6145     H
H       0.4265   0.9347   0.8855     H
C       0.4325   0.0963   0.9714     C
C       0.4325   0.3362   0.5286     C
H       0.4346   0.2113   0.3494     H
H       0.4346   0.2233   0.1506     H
N      0.43844  0.66695  0.51762     N
N      0.43844  0.77149  0.98238     N
C      0.44381  0.50556  0.16945     C
C      0.44381  0.93825  0.33055     C
C        0.445    0.555     0.25     C
C        0.445     0.89     0.25     C
C       0.4586  0.49191  0.66879     C
C       0.4586  0.96669  0.83121     C
C      0.45975  0.54025     0.75     C
C      0.45975   0.9195     0.75     C
C       0.4682     0.17   0.0365     C
C       0.4682   0.2982   0.4635     C
H       0.4918   0.0653   0.3855     H
H       0.4918   0.4265   0.1145     H
C      0.49191  0.03331  0.33121     C
C      0.49191   0.4586  0.16879     C
N      0.49356  0.60586  0.41281     N
N      0.49356   0.8877  0.08719     N
C      0.49444  0.55619  0.33055     C
C      0.49444  0.93825  0.16945     C
C      0.50556  0.06175  0.83055     C
C      0.50556  0.44381  0.66945     C
N      0.50644   0.1123  0.91281     N
N      0.50644  0.39414  0.58719     N
C      0.50809   0.5414  0.83121     C
C      0.50809  0.96669  0.66879     C
H       0.5082   0.5735   0.8855     H
H       0.5082   0.9347   0.6145     H
C       0.5318   0.7018   0.5365     C
C       0.5318     0.83   0.9635     C
C      0.54025   0.0805     0.25     C
C      0.54025  0.45975     0.25     C
C       0.5414  0.03331  0.16879     C
C       0.5414  0.50809  0.33121     C
C        0.555     0.11     0.75     C
C        0.555    0.445     0.75     C
C      0.55619  0.06175  0.66945     C
C      0.55619  0.49444  0.83055     C
N      0.56156  0.22851  0.01762     N
N      0.56156  0.33305  0.48238     N
H       0.5654   0.7767   0.8494     H
H       0.5654   0.7887   0.6506     H
C       0.5675   0.6638   0.4714     C
C       0.5675   0.9037   0.0286     C
H       0.5735   0.0653   0.1145     H
H       0.5735   0.5082   0.3855     H
O      0.57543  0.22227   0.3185     O
O      0.57543  0.35316   0.1815     O
H       0.5785   0.2164   0.5828     H
H       0.5785   0.3621   0.9172     H
C      0.57979  0.19114  0.94469     C
C      0.57979  0.38865  0.55531     C
H      0.58695   0.1739     0.75     H
H      0.58695  0.41305     0.75     H
C        0.588   0.7634   0.6064     C
C        0.588   0.8246   0.8936     C
C      0.59225   0.1845     0.25     C
C      0.59225  0.40775     0.25     C
N      0.60586   0.1123  0.58719     N
N      0.60586  0.49356  0.91281     N
C      0.61135  0.19114  0.55531     C
C      0.61135  0.42021  0.94469     C
H       0.6379   0.2164   0.9172     H
H       0.6379   0.4215   0.5828     H
O      0.64684  0.22227   0.1815     O
O      0.64684  0.42457   0.3185     O
C       0.6586   0.6863   0.4721     C
C       0.6586   0.9723   0.0279     C
H       0.6617   0.6818   0.9279     H
H       0.6617   0.9799   0.5721     H
C       0.6638   0.0963   0.5286     C
C       0.6638   0.5675   0.9714     C
Ni     0.66667  0.33333  0.10348    Ni
Ni     0.66667  0.33333  0.39652    Ni
N      0.66695  0.22851  0.48238     N
N      0.66695  0.43844  0.01762     N
C       0.6787   0.7854   0.6072     C
C       0.6787   0.8933   0.8928     C
H       0.6818   0.0201   0.0721     H
H       0.6818   0.6617   0.4279     H
C       0.6863   0.0277   0.5279     C
C       0.6863   0.6586   0.9721     C
C       0.7018     0.17   0.4635     C
C       0.7018   0.5318   0.0365     C
C       0.7135   0.7473    0.542     C
C       0.7135   0.9662    0.958     C
H       0.7181    0.827   0.6525     H
H       0.7181   0.8911   0.8475     H
C       0.7473   0.0338    0.458     C
C       0.7473   0.7135    0.042     C
C       0.7634   0.1754   0.3936     C
C       0.7634    0.588   0.1064     C
H       0.7634    0.775   0.0458     H
H       0.7634   0.9884   0.4542     H
N      0.77149  0.33305  0.01762     N
N      0.77149  0.43844  0.48238     N
H        0.775   0.0116   0.9542     H
H        0.775   0.7634   0.5458     H
H       0.7767   0.2113   0.1506     H
H       0.7767   0.5654   0.3494     H
O      0.77773  0.35316   0.3185     O
O      0.77773  0.42457   0.1815     O
H       0.7836   0.3621   0.5828     H
H       0.7836   0.4215   0.9172     H
C       0.7854   0.1067   0.3928     C
C       0.7854   0.6787   0.1072     C
H       0.7887   0.2233   0.3494     H
H       0.7887   0.5654   0.1506     H
C      0.80886  0.38865  0.94469     C
C      0.80886  0.42021  0.55531     C
C       0.8155  0.40775     0.25     C
C       0.8246   0.2366   0.1064     C
C       0.8246    0.588   0.3936     C
H       0.8261  0.41305     0.75     H
H        0.827   0.1089   0.3475     H
H        0.827   0.7181   0.1525     H
C         0.83   0.2982   0.0365     C
C         0.83   0.5318   0.4635     C
N       0.8877  0.39414  0.91281     N
N       0.8877  0.49356  0.58719     N
C         0.89    0.445     0.75     C
H       0.8911    0.173   0.1525     H
H       0.8911   0.7181   0.3475     H
C       0.8933   0.2146   0.1072     C
C       0.8933   0.6787   0.3928     C
C       0.9037   0.3362   0.9714     C
C       0.9037   0.5675   0.5286     C
C       0.9195  0.45975     0.25     C
H       0.9347   0.4265   0.3855     H
H       0.9347   0.5082   0.1145     H
C      0.93825  0.44381  0.83055     C
C      0.93825  0.49444  0.66945     C
C       0.9662   0.2527    0.042     C
C       0.9662   0.7135    0.458     C
C      0.96669   0.4586  0.33121     C
C      0.96669  0.50809  0.16879     C
C       0.9723   0.3137   0.9721     C
C       0.9723   0.6586   0.5279     C
H       0.9799   0.3182   0.4279     H
H       0.9799   0.6617   0.0721     H
H       0.9884    0.225   0.5458     H
H       0.9884   0.7634   0.9542     H
