data_I
_chemical_name_common  '/home/zhangsd/repos/MofS-CGCNN/ML/data/WS24/clean_cifs/YOYQIO'
_cell_length_a 17.87200
_cell_length_b 28.46200
_cell_length_c 14.14640
_cell_angle_alpha 90.00000
_cell_angle_beta  91.66200
_cell_angle_gamma 90.00000
_space_group_name_H-M_alt      'P 1'


loop_
_space_group_symop_operation_xyz
  'x, y, z' 

loop_
_atom_site_label
_atom_site_fract_x
_atom_site_fract_y
_atom_site_fract_z
_atom_site_type_symbol
C          0.0   0.0422     0.75     C
C          0.0   0.0555     0.25     C
H          0.0   0.0882     0.25     H
C          0.0   0.0946     0.75     C
C          0.0   0.9054     0.25     C
H          0.0   0.9118     0.75     H
C          0.0   0.9445     0.75     C
C          0.0   0.9578     0.25     C
Mn     0.00218  0.17519  0.60456    Mn
Mn     0.00218  0.82481  0.10456    Mn
H       0.0074   0.2983   0.6328     H
H       0.0074   0.7017   0.1328     H
C       0.0162  0.09818   0.0608     C
C       0.0162  0.90182   0.5608     C
C       0.0229   0.0182   0.6711     C
C       0.0229   0.9818   0.1711     C
C       0.0236  0.03049   0.1727     C
C       0.0236  0.96951   0.6727     C
H       0.0251   0.1118   0.4116     H
H       0.0251   0.8882   0.9116     H
C       0.0291   0.3088   0.9104     C
C       0.0291   0.6912   0.4104     C
H         0.03   0.3755   0.8682     H
H         0.03   0.6245   0.3682     H
O      0.03466  0.11471   0.6852     O
O      0.03466  0.88529   0.1852     O
H       0.0375   0.0345   0.6177     H
H       0.0375   0.9655   0.1177     H
N      0.04695  0.05667   0.0908     N
N      0.04695  0.94333   0.5908     N
N       0.0481  0.23137   0.9922     N
N       0.0481  0.76863   0.4922     N
N       0.0502  0.11692   0.9897     N
N       0.0502  0.88308   0.4897     N
C       0.0509   0.3546   0.9122     C
C       0.0509   0.6454   0.4122     C
C       0.0629  0.27837   0.9748     C
C       0.0629  0.72163   0.4748     C
O      0.06967  0.22247  0.68703     O
O      0.06967  0.77753  0.18703     O
H       0.0791   0.2193   0.4157     H
H       0.0791   0.7807   0.9157     H
C       0.0933  0.22099   0.0634     C
C       0.0933  0.77901   0.5634     C
H       0.0949   0.1913   0.0908     H
H       0.0949   0.8087   0.5908     H
O       0.0998    0.187  0.82453     O
O       0.0998    0.813  0.32453     O
C       0.1038   0.3709   0.9785     C
C       0.1038   0.6291   0.4785     C
N      0.10684  0.17359   0.5146     N
N      0.10684  0.82641   0.0146     N
C       0.1069  0.04805   0.0333     C
C       0.1069  0.95195   0.5333     C
C       0.1083  0.08614   0.9701     C
C       0.1083  0.91386   0.4701     C
C       0.1138  0.21244    0.754     C
C       0.1138  0.78756    0.254     C
H       0.1157   0.4027   0.9799     H
H       0.1157   0.5973   0.4799     H
C       0.1172  0.20141   0.4437     C
C       0.1172  0.79859   0.9437     C
H       0.1174    0.217   0.2557     H
H       0.1174    0.783   0.7557     H
C        0.118  0.29476   0.0389     C
C        0.118  0.70524   0.5389     C
H       0.1299   0.3913   0.4615     H
H       0.1299   0.6087   0.9615     H
N       0.1377  0.25692   0.0945     N
N       0.1377  0.74308   0.5945     N
C        0.139    0.341    0.042     C
C        0.139    0.659    0.542     C
H       0.1587   0.0131   0.5743     H
H       0.1587   0.9869   0.0743     H
C       0.1599  0.01199   0.0323     C
C       0.1599  0.98801   0.5323     C
C       0.1623   0.0888    0.901     C
C       0.1623   0.9112    0.401     C
H       0.1627   0.3333   0.5702     H
H       0.1627   0.6667   0.0702     H
H       0.1633   0.1135    0.858     H
H       0.1633   0.8865    0.358     H
H       0.1637    0.108   0.6441     H
H       0.1637    0.892   0.1441     H
C       0.1649  0.23031   0.2543     C
C       0.1649  0.76969   0.7543     C
H       0.1755   0.3517   0.0851     H
H       0.1755   0.6483   0.5851     H
C        0.177  0.15299   0.5341     C
C        0.177  0.84701   0.0341     C
C       0.1782   0.3792   0.4626     C
C       0.1782   0.6208   0.9626     C
H       0.1823   0.2577   0.6183     H
H       0.1823   0.7423   0.1183     H
C       0.1888  0.25431   0.1743     C
C       0.1888  0.74569   0.6743     C
N      0.18918    0.202    0.414     N
N      0.18918    0.798    0.914     N
C       0.1914  0.23188   0.7513     C
C       0.1914  0.76812   0.2513     C
C       0.1973   0.3451   0.5286     C
C       0.1973   0.6549   0.0286     C
C       0.1978  0.11947   0.6015     C
C       0.1978  0.88053   0.1015     C
H       0.2136    0.418   0.3522     H
H       0.2136    0.582   0.8522     H
C       0.2142   0.0529   0.8998     C
C       0.2142   0.9471   0.3998     C
C       0.2144   0.0159   0.9651     C
C       0.2144   0.9841   0.4651     C
C       0.2147  0.22693   0.3321     C
C       0.2147   0.2548   0.6705     C
C       0.2147   0.7452   0.1705     C
C       0.2147  0.77307   0.8321     C
H       0.2253   0.2121   0.8841     H
H       0.2253   0.7879   0.3841     H
C       0.2287  0.17042   0.4705     C
C       0.2287  0.82958   0.9705     C
C       0.2293    0.396   0.3972     C
C       0.2293    0.604   0.8972     C
C       0.2405  0.22737   0.8298     C
C       0.2405  0.77263   0.3298     C
H        0.248   0.4933   0.5368     H
H        0.248   0.5067   0.0368     H
H       0.2495   0.4467   0.1461     H
H       0.2495   0.5533   0.6461     H
H       0.2505   0.0533   0.8539     H
H       0.2505   0.9467   0.3539     H
H        0.252   0.0067   0.4632     H
H        0.252   0.9933   0.9632     H
C       0.2595  0.27263   0.1702     C
C       0.2595  0.72737   0.6702     C
C       0.2707    0.104   0.6028     C
C       0.2707    0.896   0.1028     C
C       0.2713  0.32958   0.5295     C
C       0.2713  0.67042   0.0295     C
H       0.2747   0.2879   0.1159     H
H       0.2747   0.7121   0.6159     H
C       0.2853   0.2452   0.3295     C
C       0.2853  0.27307   0.6679     C
C       0.2853  0.72693   0.1679     C
C       0.2853   0.7548   0.8295     C
C       0.2856   0.4841   0.0349     C
C       0.2856   0.5159   0.5349     C
C       0.2858   0.4471   0.1002     C
C       0.2858   0.5529   0.6002     C
H       0.2864    0.082   0.6478     H
H       0.2864    0.918   0.1478     H
C       0.3022  0.38053   0.3985     C
C       0.3022  0.61947   0.8985     C
C       0.3027   0.1549   0.4714     C
C       0.3027   0.8451   0.9714     C
C       0.3086  0.26812   0.2487     C
C       0.3086  0.73188   0.7487     C
N      0.31082    0.298    0.586     N
N      0.31082    0.702    0.086     N
C       0.3112  0.24569   0.8257     C
C       0.3112  0.75431   0.3257     C
H       0.3177   0.2423   0.3817     H
H       0.3177   0.7577   0.8817     H
C       0.3218   0.1208   0.5374     C
C       0.3218   0.8792   0.0374     C
C        0.323  0.34701   0.4659     C
C        0.323  0.65299   0.9659     C
H       0.3245   0.1483   0.9149     H
H       0.3245   0.8517   0.4149     H
C       0.3351  0.26969   0.7457     C
C       0.3351  0.73031   0.2457     C
H       0.3363    0.392   0.3559     H
H       0.3363    0.608   0.8559     H
H       0.3367   0.3865    0.142     H
H       0.3367   0.6135    0.642     H
H       0.3373   0.1667   0.4298     H
H       0.3373   0.8333   0.9298     H
C       0.3377   0.4112    0.099     C
C       0.3377   0.5888    0.599     C
C       0.3401  0.48801   0.9677     C
C       0.3401  0.51199   0.4677     C
H       0.3413   0.4869   0.4257     H
H       0.3413   0.5131   0.9257     H
C        0.361    0.159    0.958     C
C        0.361    0.841    0.458     C
N       0.3623  0.24308   0.9055     N
N       0.3623  0.75692   0.4055     N
H       0.3701   0.1087   0.5385     H
H       0.3701   0.8913   0.0385     H
C        0.382  0.20524   0.9611     C
C        0.382  0.79476   0.4611     C
H       0.3826    0.283   0.7443     H
H       0.3826    0.717   0.2443     H
C       0.3828  0.29859   0.5563     C
C       0.3828  0.70141   0.0563     C
H       0.3843   0.0973   0.0201     H
H       0.3843   0.9027   0.5201     H
C       0.3862  0.28756    0.246     C
C       0.3862  0.71244    0.746     C
C       0.3917  0.41386   0.0299     C
C       0.3917  0.58614   0.5299     C
C       0.3931  0.45195   0.9667     C
C       0.3931  0.54805   0.4667     C
N      0.39316  0.32641   0.4854     N
N      0.39316  0.67359   0.9854     N
C       0.3962   0.1291   0.0215     C
C       0.3962   0.8709   0.5215     C
O       0.4002    0.313  0.17547     O
O       0.4002    0.687  0.67547     O
H       0.4051   0.3087   0.9092     H
H       0.4051   0.6913   0.4092     H
C       0.4067  0.27901   0.9366     C
C       0.4067  0.72099   0.4366     C
H       0.4209   0.2807   0.5843     H
H       0.4209   0.7193   0.0843     H
O      0.43033  0.27753  0.31297     O
O      0.43033  0.72247  0.81297     O
C       0.4371  0.22163   0.0252     C
C       0.4371  0.77837   0.5252     C
C       0.4491   0.1454   0.0878     C
C       0.4491   0.8546   0.5878     C
N       0.4498  0.38308   0.0103     N
N       0.4498  0.61692   0.5103     N
N       0.4519  0.26863   0.0078     N
N       0.4519  0.73137   0.5078     N
N      0.45305  0.44333   0.9092     N
N      0.45305  0.55667   0.4092     N
H       0.4625   0.4655   0.3823     H
H       0.4625   0.5345   0.8823     H
O      0.46534  0.38529   0.3148     O
O      0.46534  0.61471   0.8148     O
H         0.47   0.1245   0.1318     H
H         0.47   0.8755   0.6318     H
C       0.4709   0.1912   0.0896     C
C       0.4709   0.8088   0.5896     C
H       0.4749   0.3882   0.5884     H
H       0.4749   0.6118   0.0884     H
C       0.4764  0.46951   0.8273     C
C       0.4764  0.53049   0.3273     C
C       0.4771   0.4818   0.3289     C
C       0.4771   0.5182   0.8289     C
C       0.4838  0.40182   0.9392     C
C       0.4838  0.59818   0.4392     C
H       0.4926   0.2017   0.3672     H
H       0.4926   0.7983   0.8672     H
Mn     0.49782  0.32481  0.39544    Mn
Mn     0.49782  0.67519  0.89544    Mn
C          0.5   0.4054     0.25     C
H          0.5   0.4118     0.75     H
C          0.5   0.4445     0.75     C
C          0.5   0.4578     0.25     C
C          0.5   0.5422     0.75     C
C          0.5   0.5555     0.25     C
H          0.5   0.5882     0.25     H
C          0.5   0.5946     0.75     C
Mn     0.50218  0.32481  0.10456    Mn
Mn     0.50218  0.67519  0.60456    Mn
H       0.5074   0.2017   0.1328     H
H       0.5074   0.7983   0.6328     H
C       0.5162  0.40182   0.5608     C
C       0.5162  0.59818   0.0608     C
C       0.5229   0.4818   0.1711     C
C       0.5229   0.5182   0.6711     C
C       0.5236  0.46951   0.6727     C
C       0.5236  0.53049   0.1727     C
H       0.5251   0.3882   0.9116     H
H       0.5251   0.6118   0.4116     H
C       0.5291   0.1912   0.4104     C
C       0.5291   0.8088   0.9104     C
H         0.53   0.1245   0.3682     H
H         0.53   0.8755   0.8682     H
O      0.53466  0.38529   0.1852     O
O      0.53466  0.61471   0.6852     O
H       0.5375   0.4655   0.1177     H
H       0.5375   0.5345   0.6177     H
N      0.54695  0.44333   0.5908     N
N      0.54695  0.55667   0.0908     N
N       0.5481  0.26863   0.4922     N
N       0.5481  0.73137   0.9922     N
N       0.5502  0.38308   0.4897     N
N       0.5502  0.61692   0.9897     N
C       0.5509   0.1454   0.4122     C
C       0.5509   0.8546   0.9122     C
C       0.5629  0.22163   0.4748     C
C       0.5629  0.77837   0.9748     C
O      0.56967  0.27753  0.18703     O
O      0.56967  0.72247  0.68703     O
H       0.5791   0.2807   0.9157     H
H       0.5791   0.7193   0.4157     H
C       0.5933  0.27901   0.5634     C
C       0.5933  0.72099   0.0634     C
H       0.5949   0.3087   0.5908     H
H       0.5949   0.6913   0.0908     H
O       0.5998    0.313  0.32453     O
O       0.5998    0.687  0.82453     O
C       0.6038   0.1291   0.4785     C
C       0.6038   0.8709   0.9785     C
N      0.60684  0.32641   0.0146     N
N      0.60684  0.67359   0.5146     N
C       0.6069  0.45195   0.5333     C
C       0.6069  0.54805   0.0333     C
C       0.6083  0.41386   0.4701     C
C       0.6083  0.58614   0.9701     C
C       0.6138  0.28756    0.254     C
C       0.6138  0.71244    0.754     C
H       0.6157   0.0973   0.4799     H
H       0.6157   0.9027   0.9799     H
C       0.6172  0.29859   0.9437     C
C       0.6172  0.70141   0.4437     C
H       0.6174    0.283   0.7557     H
H       0.6174    0.717   0.2557     H
C        0.618  0.20524   0.5389     C
C        0.618  0.79476   0.0389     C
H       0.6299   0.1087   0.9615     H
H       0.6299   0.8913   0.4615     H
N       0.6377  0.24308   0.5945     N
N       0.6377  0.75692   0.0945     N
C        0.639    0.159    0.542     C
C        0.639    0.841    0.042     C
H       0.6587   0.4869   0.0743     H
H       0.6587   0.5131   0.5743     H
C       0.6599  0.48801   0.5323     C
C       0.6599  0.51199   0.0323     C
C       0.6623   0.4112    0.401     C
C       0.6623   0.5888    0.901     C
H       0.6627   0.1667   0.0702     H
H       0.6627   0.8333   0.5702     H
H       0.6633   0.3865    0.358     H
H       0.6633   0.6135    0.858     H
H       0.6637    0.392   0.1441     H
H       0.6637    0.608   0.6441     H
C       0.6649  0.26969   0.7543     C
C       0.6649  0.73031   0.2543     C
H       0.6755   0.1483   0.5851     H
H       0.6755   0.8517   0.0851     H
C        0.677  0.34701   0.0341     C
C        0.677  0.65299   0.5341     C
C       0.6782   0.1208   0.9626     C
C       0.6782   0.8792   0.4626     C
H       0.6823   0.2423   0.1183     H
H       0.6823   0.7577   0.6183     H
C       0.6888  0.24569   0.6743     C
C       0.6888  0.75431   0.1743     C
N      0.68918    0.298    0.914     N
N      0.68918    0.702    0.414     N
C       0.6914  0.26812   0.2513     C
C       0.6914  0.73188   0.7513     C
C       0.6973   0.1549   0.0286     C
C       0.6973   0.8451   0.5286     C
C       0.6978  0.38053   0.1015     C
C       0.6978  0.61947   0.6015     C
H       0.7136    0.082   0.8522     H
H       0.7136    0.918   0.3522     H
C       0.7142   0.4471   0.3998     C
C       0.7142   0.5529   0.8998     C
C       0.7144   0.4841   0.4651     C
C       0.7144   0.5159   0.9651     C
C       0.7147   0.2452   0.1705     C
C       0.7147  0.27307   0.8321     C
C       0.7147  0.72693   0.3321     C
C       0.7147   0.7548   0.6705     C
H       0.7253   0.2879   0.3841     H
H       0.7253   0.7121   0.8841     H
C       0.7287  0.32958   0.9705     C
C       0.7287  0.67042   0.4705     C
C       0.7293    0.104   0.8972     C
C       0.7293    0.896   0.3972     C
C       0.7405  0.27263   0.3298     C
C       0.7405  0.72737   0.8298     C
H        0.748   0.0067   0.0368     H
H        0.748   0.9933   0.5368     H
H       0.7495   0.0533   0.6461     H
H       0.7495   0.9467   0.1461     H
H       0.7505   0.4467   0.3539     H
H       0.7505   0.5533   0.8539     H
H        0.752   0.4933   0.9632     H
H        0.752   0.5067   0.4632     H
C       0.7595  0.22737   0.6702     C
C       0.7595  0.77263   0.1702     C
C       0.7707    0.396   0.1028     C
C       0.7707    0.604   0.6028     C
C       0.7713  0.17042   0.0295     C
C       0.7713  0.82958   0.5295     C
H       0.7747   0.2121   0.6159     H
H       0.7747   0.7879   0.1159     H
C       0.7853  0.22693   0.1679     C
C       0.7853   0.2548   0.8295     C
C       0.7853   0.7452   0.3295     C
C       0.7853  0.77307   0.6679     C
C       0.7856   0.0159   0.5349     C
C       0.7856   0.9841   0.0349     C
C       0.7858   0.0529   0.6002     C
C       0.7858   0.9471   0.1002     C
H       0.7864    0.418   0.1478     H
H       0.7864    0.582   0.6478     H
C       0.8022  0.11947   0.8985     C
C       0.8022  0.88053   0.3985     C
C       0.8027   0.3451   0.9714     C
C       0.8027   0.6549   0.4714     C
C       0.8086  0.23188   0.7487     C
C       0.8086  0.76812   0.2487     C
N      0.81082    0.202    0.086     N
N      0.81082    0.798    0.586     N
C       0.8112  0.25431   0.3257     C
C       0.8112  0.74569   0.8257     C
H       0.8177   0.2577   0.8817     H
H       0.8177   0.7423   0.3817     H
C       0.8218   0.3792   0.0374     C
C       0.8218   0.6208   0.5374     C
C        0.823  0.15299   0.9659     C
C        0.823  0.84701   0.4659     C
H       0.8245   0.3517   0.4149     H
H       0.8245   0.6483   0.9149     H
C       0.8351  0.23031   0.2457     C
C       0.8351  0.76969   0.7457     C
H       0.8363    0.108   0.8559     H
H       0.8363    0.892   0.3559     H
H       0.8367   0.1135    0.642     H
H       0.8367   0.8865    0.142     H
H       0.8373   0.3333   0.9298     H
H       0.8373   0.6667   0.4298     H
C       0.8377   0.0888    0.599     C
C       0.8377   0.9112    0.099     C
C       0.8401  0.01199   0.4677     C
C       0.8401  0.98801   0.9677     C
H       0.8413   0.0131   0.9257     H
H       0.8413   0.9869   0.4257     H
C        0.861    0.341    0.458     C
C        0.861    0.659    0.958     C
N       0.8623  0.25692   0.4055     N
N       0.8623  0.74308   0.9055     N
H       0.8701   0.3913   0.0385     H
H       0.8701   0.6087   0.5385     H
C        0.882  0.29476   0.4611     C
C        0.882  0.70524   0.9611     C
H       0.8826    0.217   0.2443     H
H       0.8826    0.783   0.7443     H
C       0.8828  0.20141   0.0563     C
C       0.8828  0.79859   0.5563     C
H       0.8843   0.4027   0.5201     H
H       0.8843   0.5973   0.0201     H
C       0.8862  0.21244    0.746     C
C       0.8862  0.78756    0.246     C
C       0.8917  0.08614   0.5299     C
C       0.8917  0.91386   0.0299     C
C       0.8931  0.04805   0.4667     C
C       0.8931  0.95195   0.9667     C
N      0.89316  0.17359   0.9854     N
N      0.89316  0.82641   0.4854     N
C       0.8962   0.3709   0.5215     C
C       0.8962   0.6291   0.0215     C
O       0.9002    0.187  0.67547     O
O       0.9002    0.813  0.17547     O
H       0.9051   0.1913   0.4092     H
H       0.9051   0.8087   0.9092     H
C       0.9067  0.22099   0.4366     C
C       0.9067  0.77901   0.9366     C
H       0.9209   0.2193   0.0843     H
H       0.9209   0.7807   0.5843     H
O      0.93033  0.22247  0.81297     O
O      0.93033  0.77753  0.31297     O
C       0.9371  0.27837   0.5252     C
C       0.9371  0.72163   0.0252     C
C       0.9491   0.3546   0.5878     C
C       0.9491   0.6454   0.0878     C
N       0.9498  0.11692   0.5103     N
N       0.9498  0.88308   0.0103     N
N       0.9519  0.23137   0.5078     N
N       0.9519  0.76863   0.0078     N
N      0.95305  0.05667   0.4092     N
N      0.95305  0.94333   0.9092     N
H       0.9625   0.0345   0.8823     H
H       0.9625   0.9655   0.3823     H
O      0.96534  0.11471   0.8148     O
O      0.96534  0.88529   0.3148     O
H         0.97   0.3755   0.6318     H
H         0.97   0.6245   0.1318     H
C       0.9709   0.3088   0.5896     C
C       0.9709   0.6912   0.0896     C
H       0.9749   0.1118   0.0884     H
H       0.9749   0.8882   0.5884     H
C       0.9764  0.03049   0.3273     C
C       0.9764  0.96951   0.8273     C
C       0.9771   0.0182   0.8289     C
C       0.9771   0.9818   0.3289     C
C       0.9838  0.09818   0.4392     C
C       0.9838  0.90182   0.9392     C
H       0.9926   0.2983   0.8672     H
H       0.9926   0.7017   0.3672     H
Mn     0.99782  0.17519  0.89544    Mn
Mn     0.99782  0.82481  0.39544    Mn
