data_I
_chemical_name_common  '/home/zhangsd/repos/MofS-CGCNN/ML/data/WS24/clean_cifs/YUKMOI'
_cell_length_a 29.95250
_cell_length_b 29.95250
_cell_length_c 29.95250
_cell_angle_alpha 90.00000
_cell_angle_beta  90.00000
_cell_angle_gamma 90.00000
_space_group_name_H-M_alt      'P 1'


loop_
_space_group_symop_operation_xyz
  'x, y, z' 

loop_
_atom_site_label
_atom_site_fract_x
_atom_site_fract_y
_atom_site_fract_z
_atom_site_type_symbol
C          0.0  0.04599      0.5     C
C          0.0  0.09604      0.5     C
O          0.0  0.21437      0.5     O
Zn         0.0  0.25139  0.44672    Zn
Zn         0.0  0.25139  0.55328    Zn
O          0.0  0.31367  0.46293     O
O          0.0  0.31367  0.53707     O
C          0.0  0.33233      0.5     C
C          0.0  0.38223      0.5     C
H          0.0   0.3902   0.4347     H
H          0.0   0.3902   0.5653     H
C          0.0  0.40536   0.4618     C
C          0.0  0.40536   0.5382     C
C          0.0  0.45183  0.46201     C
C          0.0  0.45183  0.53799     C
H          0.0   0.4671    0.435     H
H          0.0   0.4671    0.565     H
C          0.0  0.47509      0.5     C
C          0.0  0.52491      0.5     C
H          0.0   0.5329    0.435     H
H          0.0   0.5329    0.565     H
C          0.0  0.54817  0.46201     C
C          0.0  0.54817  0.53799     C
C          0.0  0.59464   0.4618     C
C          0.0  0.59464   0.5382     C
H          0.0   0.6098   0.4347     H
H          0.0   0.6098   0.5653     H
C          0.0  0.61777      0.5     C
C          0.0  0.66767      0.5     C
O          0.0  0.68633  0.46293     O
O          0.0  0.68633  0.53707     O
Zn         0.0  0.74861  0.44672    Zn
Zn         0.0  0.74861  0.55328    Zn
O          0.0  0.78563      0.5     O
C          0.0  0.90396      0.5     C
C          0.0  0.95401      0.5     C
C      0.02314      0.5  0.03933     C
C      0.02314      0.5  0.96067     C
O      0.03709  0.11493      0.5     O
O      0.03709  0.88507      0.5     O
H       0.0386      0.5   0.0662     H
H       0.0386      0.5   0.9338     H
C      0.03933  0.02314      0.5     C
C      0.03933  0.97686      0.5     C
C      0.04599      0.5      0.0     C
O      0.05275  0.24117  0.41086     O
O      0.05275  0.24117  0.58914     O
O      0.05275  0.75883  0.41086     O
O      0.05275  0.75883  0.58914     O
Zn     0.05332  0.17736      0.5    Zn
Zn     0.05332  0.82264      0.5    Zn
H       0.0662   0.0386      0.5     H
H       0.0662   0.9614      0.5     H
C      0.08455  0.21429  0.41567     C
C      0.08455  0.21429  0.58433     C
C      0.08455  0.78571  0.41567     C
C      0.08455  0.78571  0.58433     C
O      0.08913  0.18763  0.44736     O
O      0.08913  0.18763  0.55264     O
O      0.08913  0.81237  0.44736     O
O      0.08913  0.81237  0.55264     O
H       0.0918   0.2874    0.263     H
H       0.0918   0.2874    0.737     H
H       0.0918   0.7126    0.263     H
H       0.0918   0.7126    0.737     H
C      0.09604      0.5      0.0     C
H       0.0976   0.2679   0.3464     H
H       0.0976   0.2679   0.6536     H
H       0.0976   0.7321   0.3464     H
H       0.0976   0.7321   0.6536     H
H        0.112   0.2456   0.2389     H
H        0.112   0.2456   0.7611     H
H        0.112   0.7544   0.2389     H
H        0.112   0.7544   0.7611     H
O      0.11493      0.5  0.03709     O
O      0.11493      0.5  0.96291     O
C      0.11727  0.27607  0.24719     C
C      0.11727  0.27607  0.75281     C
C      0.11727  0.72393  0.24719     C
C      0.11727  0.72393  0.75281     C
C      0.11982  0.24628  0.34721     C
C      0.11982  0.24628  0.65279     C
C      0.11982  0.75372  0.34721     C
C      0.11982  0.75372  0.65279     C
C      0.11991  0.21426  0.38049     C
C      0.11991  0.21426  0.61951     C
C      0.11991  0.78574  0.38049     C
C      0.11991  0.78574  0.61951     C
H       0.1221   0.2936   0.2208     H
H       0.1221   0.2936   0.7792     H
H       0.1221   0.7064   0.2208     H
H       0.1221   0.7064   0.7792     H
H       0.1397   0.3349   0.3122     H
H       0.1397   0.3349   0.6878     H
H       0.1397   0.6651   0.3122     H
H       0.1397   0.6651   0.6878     H
C      0.15306   0.2459  0.31511     C
C      0.15306   0.2459  0.68489     C
C      0.15306   0.7541  0.31511     C
C      0.15306   0.7541  0.68489     C
C      0.15313  0.18204    0.381     C
C      0.15313  0.18204    0.619     C
C      0.15313  0.81796    0.381     C
C      0.15313  0.81796    0.619     C
H       0.1533   0.1606   0.4034     H
H       0.1533   0.1606   0.5966     H
H       0.1533   0.8394   0.4034     H
H       0.1533   0.8394   0.5966     H
C      0.15846  0.27862  0.27712     C
C      0.15846  0.27862  0.72288     C
C      0.15846  0.72138  0.27712     C
C      0.15846  0.72138  0.72288     C
H       0.1593   0.3492    0.208     H
H       0.1593   0.3492    0.792     H
H       0.1593   0.6508    0.208     H
H       0.1593   0.6508    0.792     H
H       0.1606   0.4034   0.1533     H
H       0.1606   0.4034   0.8467     H
H       0.1606   0.5966   0.1533     H
H       0.1606   0.5966   0.8467     H
C      0.16633  0.32511  0.29719     C
C      0.16633  0.32511  0.70281     C
C      0.16633  0.67489  0.29719     C
C      0.16633  0.67489  0.70281     C
H       0.1737   0.3457   0.2738     H
H       0.1737   0.3457   0.7262     H
H       0.1737   0.6543   0.2738     H
H       0.1737   0.6543   0.7262     H
Zn     0.17736      0.5  0.05332    Zn
Zn     0.17736      0.5  0.94668    Zn
C      0.18132  0.34861  0.18609     C
C      0.18132  0.34861  0.81391     C
C      0.18132  0.65139  0.18609     C
C      0.18132  0.65139  0.81391     C
C      0.18204    0.381  0.15313     C
C      0.18204    0.381  0.84687     C
C      0.18204    0.619  0.15313     C
C      0.18204    0.619  0.84687     C
C      0.18609  0.18132  0.34861     C
C      0.18609  0.18132  0.65139     C
C      0.18609  0.81868  0.34861     C
C      0.18609  0.81868  0.65139     C
C      0.18649  0.21346  0.31527     C
C      0.18649  0.21346  0.68473     C
C      0.18649  0.78654  0.31527     C
C      0.18649  0.78654  0.68473     C
O      0.18763  0.44736  0.08913     O
O      0.18763  0.44736  0.91087     O
O      0.18763  0.55264  0.08913     O
O      0.18763  0.55264  0.91087     O
H       0.1905   0.3237   0.3182     H
H       0.1905   0.3237   0.6818     H
H       0.1905   0.6763   0.3182     H
H       0.1905   0.6763   0.6818     H
C      0.20046  0.26041  0.25438     C
C      0.20046  0.26041  0.74562     C
C      0.20046  0.73959  0.25438     C
C      0.20046  0.73959  0.74562     C
H        0.208   0.1593   0.3492     H
H        0.208   0.1593   0.6508     H
H        0.208   0.8407   0.3492     H
H        0.208   0.8407   0.6508     H
C      0.21346  0.31527  0.18649     C
C      0.21346  0.31527  0.81351     C
C      0.21346  0.68473  0.18649     C
C      0.21346  0.68473  0.81351     C
C      0.21426  0.38049  0.11991     C
C      0.21426  0.38049  0.88009     C
C      0.21426  0.61951  0.11991     C
C      0.21426  0.61951  0.88009     C
C      0.21429  0.41567  0.08455     C
C      0.21429  0.41567  0.91545     C
C      0.21429  0.58433  0.08455     C
C      0.21429  0.58433  0.91545     C
O      0.21437      0.5      0.0     O
C      0.21652  0.22228  0.27642     C
C      0.21652  0.22228  0.72358     C
C      0.21652  0.77772  0.27642     C
C      0.21652  0.77772  0.72358     C
H       0.2208   0.1221   0.2936     H
H       0.2208   0.1221   0.7064     H
H       0.2208   0.8779   0.2936     H
H       0.2208   0.8779   0.7064     H
C      0.22228  0.27642  0.21652     C
C      0.22228  0.27642  0.78348     C
C      0.22228  0.72358  0.21652     C
C      0.22228  0.72358  0.78348     C
H       0.2389    0.112   0.2456     H
H       0.2389    0.112   0.7544     H
H       0.2389    0.888   0.2456     H
H       0.2389    0.888   0.7544     H
O      0.24117  0.41086  0.05275     O
O      0.24117  0.41086  0.94725     O
O      0.24117  0.58914  0.05275     O
O      0.24117  0.58914  0.94725     O
H       0.2456   0.2389    0.112     H
H       0.2456   0.2389    0.888     H
H       0.2456   0.7611    0.112     H
H       0.2456   0.7611    0.888     H
C       0.2459  0.31511  0.15306     C
C       0.2459  0.31511  0.84694     C
C       0.2459  0.68489  0.15306     C
C       0.2459  0.68489  0.84694     C
C      0.24628  0.34721  0.11982     C
C      0.24628  0.34721  0.88018     C
C      0.24628  0.65279  0.11982     C
C      0.24628  0.65279  0.88018     C
C      0.24719  0.11727  0.27607     C
C      0.24719  0.11727  0.72393     C
C      0.24719  0.88273  0.27607     C
C      0.24719  0.88273  0.72393     C
Zn     0.25139  0.44672      0.0    Zn
Zn     0.25139  0.55328      0.0    Zn
C      0.25438  0.20046  0.26041     C
C      0.25438  0.20046  0.73959     C
C      0.25438  0.79954  0.26041     C
C      0.25438  0.79954  0.73959     C
C      0.26041  0.25438  0.20046     C
C      0.26041  0.25438  0.79954     C
C      0.26041  0.74562  0.20046     C
C      0.26041  0.74562  0.79954     C
H        0.263   0.0918   0.2874     H
H        0.263   0.0918   0.7126     H
H        0.263   0.9082   0.2874     H
H        0.263   0.9082   0.7126     H
H       0.2679   0.3464   0.0976     H
H       0.2679   0.3464   0.9024     H
H       0.2679   0.6536   0.0976     H
H       0.2679   0.6536   0.9024     H
H       0.2738   0.1737   0.3457     H
H       0.2738   0.1737   0.6543     H
H       0.2738   0.8263   0.3457     H
H       0.2738   0.8263   0.6543     H
C      0.27607  0.24719  0.11727     C
C      0.27607  0.24719  0.88273     C
C      0.27607  0.75281  0.11727     C
C      0.27607  0.75281  0.88273     C
C      0.27642  0.21652  0.22228     C
C      0.27642  0.21652  0.77772     C
C      0.27642  0.78348  0.22228     C
C      0.27642  0.78348  0.77772     C
C      0.27712  0.15846  0.27862     C
C      0.27712  0.15846  0.72138     C
C      0.27712  0.84154  0.27862     C
C      0.27712  0.84154  0.72138     C
C      0.27862  0.27712  0.15846     C
C      0.27862  0.27712  0.84154     C
C      0.27862  0.72288  0.15846     C
C      0.27862  0.72288  0.84154     C
H       0.2874    0.263   0.0918     H
H       0.2874    0.263   0.9082     H
H       0.2874    0.737   0.0918     H
H       0.2874    0.737   0.9082     H
H       0.2936   0.2208   0.1221     H
H       0.2936   0.2208   0.8779     H
H       0.2936   0.7792   0.1221     H
H       0.2936   0.7792   0.8779     H
C      0.29719  0.16633  0.32511     C
C      0.29719  0.16633  0.67489     C
C      0.29719  0.83367  0.32511     C
C      0.29719  0.83367  0.67489     C
H       0.3122   0.1397   0.3349     H
H       0.3122   0.1397   0.6651     H
H       0.3122   0.8603   0.3349     H
H       0.3122   0.8603   0.6651     H
O      0.31367  0.46293      0.0     O
O      0.31367  0.53707      0.0     O
C      0.31511  0.15306   0.2459     C
C      0.31511  0.15306   0.7541     C
C      0.31511  0.84694   0.2459     C
C      0.31511  0.84694   0.7541     C
C      0.31527  0.18649  0.21346     C
C      0.31527  0.18649  0.78654     C
C      0.31527  0.81351  0.21346     C
C      0.31527  0.81351  0.78654     C
H       0.3182   0.1905   0.3237     H
H       0.3182   0.1905   0.6763     H
H       0.3182   0.8095   0.3237     H
H       0.3182   0.8095   0.6763     H
H       0.3237   0.3182   0.1905     H
H       0.3237   0.3182   0.8095     H
H       0.3237   0.6818   0.1905     H
H       0.3237   0.6818   0.8095     H
C      0.32511  0.29719  0.16633     C
C      0.32511  0.29719  0.83367     C
C      0.32511  0.70281  0.16633     C
C      0.32511  0.70281  0.83367     C
C      0.33233      0.5      0.0     C
H       0.3349   0.3122   0.1397     H
H       0.3349   0.3122   0.8603     H
H       0.3349   0.6878   0.1397     H
H       0.3349   0.6878   0.8603     H
H       0.3457   0.2738   0.1737     H
H       0.3457   0.2738   0.8263     H
H       0.3457   0.7262   0.1737     H
H       0.3457   0.7262   0.8263     H
H       0.3464   0.0976   0.2679     H
H       0.3464   0.0976   0.7321     H
H       0.3464   0.9024   0.2679     H
H       0.3464   0.9024   0.7321     H
C      0.34721  0.11982  0.24628     C
C      0.34721  0.11982  0.75372     C
C      0.34721  0.88018  0.24628     C
C      0.34721  0.88018  0.75372     C
C      0.34861  0.18609  0.18132     C
C      0.34861  0.18609  0.81868     C
C      0.34861  0.81391  0.18132     C
C      0.34861  0.81391  0.81868     C
H       0.3492    0.208   0.1593     H
H       0.3492    0.208   0.8407     H
H       0.3492    0.792   0.1593     H
H       0.3492    0.792   0.8407     H
C      0.38049  0.11991  0.21426     C
C      0.38049  0.11991  0.78574     C
C      0.38049  0.88009  0.21426     C
C      0.38049  0.88009  0.78574     C
C        0.381  0.15313  0.18204     C
C        0.381  0.15313  0.81796     C
C        0.381  0.84687  0.18204     C
C        0.381  0.84687  0.81796     C
C      0.38223      0.5      0.0     C
H       0.3902   0.4347      0.0     H
H       0.3902   0.5653      0.0     H
H       0.4034   0.1533   0.1606     H
H       0.4034   0.1533   0.8394     H
H       0.4034   0.8467   0.1606     H
H       0.4034   0.8467   0.8394     H
C      0.40536   0.4618      0.0     C
C      0.40536   0.5382      0.0     C
O      0.41086  0.05275  0.24117     O
O      0.41086  0.05275  0.75883     O
O      0.41086  0.94725  0.24117     O
O      0.41086  0.94725  0.75883     O
C      0.41567  0.08455  0.21429     C
C      0.41567  0.08455  0.78571     C
C      0.41567  0.91545  0.21429     C
C      0.41567  0.91545  0.78571     C
H       0.4347      0.0   0.3902     H
H       0.4347      0.0   0.6098     H
H        0.435      0.0   0.4671     H
H        0.435      0.0   0.5329     H
Zn     0.44672      0.0  0.25139    Zn
Zn     0.44672      0.0  0.74861    Zn
O      0.44736  0.08913  0.18763     O
O      0.44736  0.08913  0.81237     O
O      0.44736  0.91087  0.18763     O
O      0.44736  0.91087  0.81237     O
C      0.45183  0.46201      0.0     C
C      0.45183  0.53799      0.0     C
C       0.4618      0.0  0.40536     C
C       0.4618      0.0  0.59464     C
C      0.46201      0.0  0.45183     C
C      0.46201      0.0  0.54817     C
O      0.46293      0.0  0.31367     O
O      0.46293      0.0  0.68633     O
H       0.4671    0.435      0.0     H
H       0.4671    0.565      0.0     H
C      0.47509      0.5      0.0     C
C          0.5      0.0  0.04599     C
C          0.5      0.0  0.09604     C
O          0.5      0.0  0.21437     O
C          0.5      0.0  0.33233     C
C          0.5      0.0  0.38223     C
C          0.5      0.0  0.47509     C
C          0.5      0.0  0.52491     C
C          0.5      0.0  0.61777     C
C          0.5      0.0  0.66767     C
O          0.5      0.0  0.78563     O
C          0.5      0.0  0.90396     C
C          0.5      0.0  0.95401     C
O          0.5  0.03709  0.11493     O
O          0.5  0.03709  0.88507     O
C          0.5  0.03933  0.02314     C
C          0.5  0.03933  0.97686     C
Zn         0.5  0.05332  0.17736    Zn
Zn         0.5  0.05332  0.82264    Zn
H          0.5   0.0662   0.0386     H
H          0.5   0.0662   0.9614     H
H          0.5   0.9338   0.0386     H
H          0.5   0.9338   0.9614     H
Zn         0.5  0.94668  0.17736    Zn
Zn         0.5  0.94668  0.82264    Zn
C          0.5  0.96067  0.02314     C
C          0.5  0.96067  0.97686     C
O          0.5  0.96291  0.11493     O
O          0.5  0.96291  0.88507     O
C      0.52491      0.5      0.0     C
H       0.5329    0.435      0.0     H
H       0.5329    0.565      0.0     H
O      0.53707      0.0  0.31367     O
O      0.53707      0.0  0.68633     O
C      0.53799      0.0  0.45183     C
C      0.53799      0.0  0.54817     C
C       0.5382      0.0  0.40536     C
C       0.5382      0.0  0.59464     C
C      0.54817  0.46201      0.0     C
C      0.54817  0.53799      0.0     C
O      0.55264  0.08913  0.18763     O
O      0.55264  0.08913  0.81237     O
O      0.55264  0.91087  0.18763     O
O      0.55264  0.91087  0.81237     O
Zn     0.55328      0.0  0.25139    Zn
Zn     0.55328      0.0  0.74861    Zn
H        0.565      0.0   0.4671     H
H        0.565      0.0   0.5329     H
H       0.5653      0.0   0.3902     H
H       0.5653      0.0   0.6098     H
C      0.58433  0.08455  0.21429     C
C      0.58433  0.08455  0.78571     C
C      0.58433  0.91545  0.21429     C
C      0.58433  0.91545  0.78571     C
O      0.58914  0.05275  0.24117     O
O      0.58914  0.05275  0.75883     O
O      0.58914  0.94725  0.24117     O
O      0.58914  0.94725  0.75883     O
C      0.59464   0.4618      0.0     C
C      0.59464   0.5382      0.0     C
H       0.5966   0.1533   0.1606     H
H       0.5966   0.1533   0.8394     H
H       0.5966   0.8467   0.1606     H
H       0.5966   0.8467   0.8394     H
H       0.6098   0.4347      0.0     H
H       0.6098   0.5653      0.0     H
C      0.61777      0.5      0.0     C
C        0.619  0.15313  0.18204     C
C        0.619  0.15313  0.81796     C
C        0.619  0.84687  0.18204     C
C        0.619  0.84687  0.81796     C
C      0.61951  0.11991  0.21426     C
C      0.61951  0.11991  0.78574     C
C      0.61951  0.88009  0.21426     C
C      0.61951  0.88009  0.78574     C
H       0.6508    0.208   0.1593     H
H       0.6508    0.208   0.8407     H
H       0.6508    0.792   0.1593     H
H       0.6508    0.792   0.8407     H
C      0.65139  0.18609  0.18132     C
C      0.65139  0.18609  0.81868     C
C      0.65139  0.81391  0.18132     C
C      0.65139  0.81391  0.81868     C
C      0.65279  0.11982  0.24628     C
C      0.65279  0.11982  0.75372     C
C      0.65279  0.88018  0.24628     C
C      0.65279  0.88018  0.75372     C
H       0.6536   0.0976   0.2679     H
H       0.6536   0.0976   0.7321     H
H       0.6536   0.9024   0.2679     H
H       0.6536   0.9024   0.7321     H
H       0.6543   0.2738   0.1737     H
H       0.6543   0.2738   0.8263     H
H       0.6543   0.7262   0.1737     H
H       0.6543   0.7262   0.8263     H
H       0.6651   0.3122   0.1397     H
H       0.6651   0.3122   0.8603     H
H       0.6651   0.6878   0.1397     H
H       0.6651   0.6878   0.8603     H
C      0.66767      0.5      0.0     C
C      0.67489  0.29719  0.16633     C
C      0.67489  0.29719  0.83367     C
C      0.67489  0.70281  0.16633     C
C      0.67489  0.70281  0.83367     C
H       0.6763   0.3182   0.1905     H
H       0.6763   0.3182   0.8095     H
H       0.6763   0.6818   0.1905     H
H       0.6763   0.6818   0.8095     H
H       0.6818   0.1905   0.3237     H
H       0.6818   0.1905   0.6763     H
H       0.6818   0.8095   0.3237     H
H       0.6818   0.8095   0.6763     H
C      0.68473  0.18649  0.21346     C
C      0.68473  0.18649  0.78654     C
C      0.68473  0.81351  0.21346     C
C      0.68473  0.81351  0.78654     C
C      0.68489  0.15306   0.2459     C
C      0.68489  0.15306   0.7541     C
C      0.68489  0.84694   0.2459     C
C      0.68489  0.84694   0.7541     C
O      0.68633  0.46293      0.0     O
O      0.68633  0.53707      0.0     O
H       0.6878   0.1397   0.3349     H
H       0.6878   0.1397   0.6651     H
H       0.6878   0.8603   0.3349     H
H       0.6878   0.8603   0.6651     H
C      0.70281  0.16633  0.32511     C
C      0.70281  0.16633  0.67489     C
C      0.70281  0.83367  0.32511     C
C      0.70281  0.83367  0.67489     C
H       0.7064   0.2208   0.1221     H
H       0.7064   0.2208   0.8779     H
H       0.7064   0.7792   0.1221     H
H       0.7064   0.7792   0.8779     H
H       0.7126    0.263   0.0918     H
H       0.7126    0.263   0.9082     H
H       0.7126    0.737   0.0918     H
H       0.7126    0.737   0.9082     H
C      0.72138  0.27712  0.15846     C
C      0.72138  0.27712  0.84154     C
C      0.72138  0.72288  0.15846     C
C      0.72138  0.72288  0.84154     C
C      0.72288  0.15846  0.27862     C
C      0.72288  0.15846  0.72138     C
C      0.72288  0.84154  0.27862     C
C      0.72288  0.84154  0.72138     C
C      0.72358  0.21652  0.22228     C
C      0.72358  0.21652  0.77772     C
C      0.72358  0.78348  0.22228     C
C      0.72358  0.78348  0.77772     C
C      0.72393  0.24719  0.11727     C
C      0.72393  0.24719  0.88273     C
C      0.72393  0.75281  0.11727     C
C      0.72393  0.75281  0.88273     C
H       0.7262   0.1737   0.3457     H
H       0.7262   0.1737   0.6543     H
H       0.7262   0.8263   0.3457     H
H       0.7262   0.8263   0.6543     H
H       0.7321   0.3464   0.0976     H
H       0.7321   0.3464   0.9024     H
H       0.7321   0.6536   0.0976     H
H       0.7321   0.6536   0.9024     H
H        0.737   0.0918   0.2874     H
H        0.737   0.0918   0.7126     H
H        0.737   0.9082   0.2874     H
H        0.737   0.9082   0.7126     H
C      0.73959  0.25438  0.20046     C
C      0.73959  0.25438  0.79954     C
C      0.73959  0.74562  0.20046     C
C      0.73959  0.74562  0.79954     C
C      0.74562  0.20046  0.26041     C
C      0.74562  0.20046  0.73959     C
C      0.74562  0.79954  0.26041     C
C      0.74562  0.79954  0.73959     C
Zn     0.74861  0.44672      0.0    Zn
Zn     0.74861  0.55328      0.0    Zn
C      0.75281  0.11727  0.27607     C
C      0.75281  0.11727  0.72393     C
C      0.75281  0.88273  0.27607     C
C      0.75281  0.88273  0.72393     C
C      0.75372  0.34721  0.11982     C
C      0.75372  0.34721  0.88018     C
C      0.75372  0.65279  0.11982     C
C      0.75372  0.65279  0.88018     C
C       0.7541  0.31511  0.15306     C
C       0.7541  0.31511  0.84694     C
C       0.7541  0.68489  0.15306     C
C       0.7541  0.68489  0.84694     C
H       0.7544   0.2389    0.112     H
H       0.7544   0.2389    0.888     H
H       0.7544   0.7611    0.112     H
H       0.7544   0.7611    0.888     H
O      0.75883  0.41086  0.05275     O
O      0.75883  0.41086  0.94725     O
O      0.75883  0.58914  0.05275     O
O      0.75883  0.58914  0.94725     O
H       0.7611    0.112   0.2456     H
H       0.7611    0.112   0.7544     H
H       0.7611    0.888   0.2456     H
H       0.7611    0.888   0.7544     H
C      0.77772  0.27642  0.21652     C
C      0.77772  0.27642  0.78348     C
C      0.77772  0.72358  0.21652     C
C      0.77772  0.72358  0.78348     C
H       0.7792   0.1221   0.2936     H
H       0.7792   0.1221   0.7064     H
H       0.7792   0.8779   0.2936     H
H       0.7792   0.8779   0.7064     H
C      0.78348  0.22228  0.27642     C
C      0.78348  0.22228  0.72358     C
C      0.78348  0.77772  0.27642     C
C      0.78348  0.77772  0.72358     C
O      0.78563      0.5      0.0     O
C      0.78571  0.41567  0.08455     C
C      0.78571  0.41567  0.91545     C
C      0.78571  0.58433  0.08455     C
C      0.78571  0.58433  0.91545     C
C      0.78574  0.38049  0.11991     C
C      0.78574  0.38049  0.88009     C
C      0.78574  0.61951  0.11991     C
C      0.78574  0.61951  0.88009     C
C      0.78654  0.31527  0.18649     C
C      0.78654  0.31527  0.81351     C
C      0.78654  0.68473  0.18649     C
C      0.78654  0.68473  0.81351     C
H        0.792   0.1593   0.3492     H
H        0.792   0.1593   0.6508     H
H        0.792   0.8407   0.3492     H
H        0.792   0.8407   0.6508     H
C      0.79954  0.26041  0.25438     C
C      0.79954  0.26041  0.74562     C
C      0.79954  0.73959  0.25438     C
C      0.79954  0.73959  0.74562     C
H       0.8095   0.3237   0.3182     H
H       0.8095   0.3237   0.6818     H
H       0.8095   0.6763   0.3182     H
H       0.8095   0.6763   0.6818     H
O      0.81237  0.44736  0.08913     O
O      0.81237  0.44736  0.91087     O
O      0.81237  0.55264  0.08913     O
O      0.81237  0.55264  0.91087     O
C      0.81351  0.21346  0.31527     C
C      0.81351  0.21346  0.68473     C
C      0.81351  0.78654  0.31527     C
C      0.81351  0.78654  0.68473     C
C      0.81391  0.18132  0.34861     C
C      0.81391  0.18132  0.65139     C
C      0.81391  0.81868  0.34861     C
C      0.81391  0.81868  0.65139     C
C      0.81796    0.381  0.15313     C
C      0.81796    0.381  0.84687     C
C      0.81796    0.619  0.15313     C
C      0.81796    0.619  0.84687     C
C      0.81868  0.34861  0.18609     C
C      0.81868  0.34861  0.81391     C
C      0.81868  0.65139  0.18609     C
C      0.81868  0.65139  0.81391     C
Zn     0.82264      0.5  0.05332    Zn
Zn     0.82264      0.5  0.94668    Zn
H       0.8263   0.3457   0.2738     H
H       0.8263   0.3457   0.7262     H
H       0.8263   0.6543   0.2738     H
H       0.8263   0.6543   0.7262     H
C      0.83367  0.32511  0.29719     C
C      0.83367  0.32511  0.70281     C
C      0.83367  0.67489  0.29719     C
C      0.83367  0.67489  0.70281     C
H       0.8394   0.4034   0.1533     H
H       0.8394   0.4034   0.8467     H
H       0.8394   0.5966   0.1533     H
H       0.8394   0.5966   0.8467     H
H       0.8407   0.3492    0.208     H
H       0.8407   0.3492    0.792     H
H       0.8407   0.6508    0.208     H
H       0.8407   0.6508    0.792     H
C      0.84154  0.27862  0.27712     C
C      0.84154  0.27862  0.72288     C
C      0.84154  0.72138  0.27712     C
C      0.84154  0.72138  0.72288     C
H       0.8467   0.1606   0.4034     H
H       0.8467   0.1606   0.5966     H
H       0.8467   0.8394   0.4034     H
H       0.8467   0.8394   0.5966     H
C      0.84687  0.18204    0.381     C
C      0.84687  0.18204    0.619     C
C      0.84687  0.81796    0.381     C
C      0.84687  0.81796    0.619     C
C      0.84694   0.2459  0.31511     C
C      0.84694   0.2459  0.68489     C
C      0.84694   0.7541  0.31511     C
C      0.84694   0.7541  0.68489     C
H       0.8603   0.3349   0.3122     H
H       0.8603   0.3349   0.6878     H
H       0.8603   0.6651   0.3122     H
H       0.8603   0.6651   0.6878     H
H       0.8779   0.2936   0.2208     H
H       0.8779   0.2936   0.7792     H
H       0.8779   0.7064   0.2208     H
H       0.8779   0.7064   0.7792     H
C      0.88009  0.21426  0.38049     C
C      0.88009  0.21426  0.61951     C
C      0.88009  0.78574  0.38049     C
C      0.88009  0.78574  0.61951     C
C      0.88018  0.24628  0.34721     C
C      0.88018  0.24628  0.65279     C
C      0.88018  0.75372  0.34721     C
C      0.88018  0.75372  0.65279     C
C      0.88273  0.27607  0.24719     C
C      0.88273  0.27607  0.75281     C
C      0.88273  0.72393  0.24719     C
C      0.88273  0.72393  0.75281     C
O      0.88507      0.5  0.03709     O
O      0.88507      0.5  0.96291     O
H        0.888   0.2456   0.2389     H
H        0.888   0.2456   0.7611     H
H        0.888   0.7544   0.2389     H
H        0.888   0.7544   0.7611     H
H       0.9024   0.2679   0.3464     H
H       0.9024   0.2679   0.6536     H
H       0.9024   0.7321   0.3464     H
H       0.9024   0.7321   0.6536     H
C      0.90396      0.5      0.0     C
H       0.9082   0.2874    0.263     H
H       0.9082   0.2874    0.737     H
H       0.9082   0.7126    0.263     H
H       0.9082   0.7126    0.737     H
O      0.91087  0.18763  0.44736     O
O      0.91087  0.18763  0.55264     O
O      0.91087  0.81237  0.44736     O
O      0.91087  0.81237  0.55264     O
C      0.91545  0.21429  0.41567     C
C      0.91545  0.21429  0.58433     C
C      0.91545  0.78571  0.41567     C
C      0.91545  0.78571  0.58433     C
H       0.9338   0.0386      0.5     H
H       0.9338   0.9614      0.5     H
Zn     0.94668  0.17736      0.5    Zn
Zn     0.94668  0.82264      0.5    Zn
O      0.94725  0.24117  0.41086     O
O      0.94725  0.24117  0.58914     O
O      0.94725  0.75883  0.41086     O
O      0.94725  0.75883  0.58914     O
C      0.95401      0.5      0.0     C
C      0.96067  0.02314      0.5     C
C      0.96067  0.97686      0.5     C
H       0.9614      0.5   0.0662     H
H       0.9614      0.5   0.9338     H
O      0.96291  0.11493      0.5     O
O      0.96291  0.88507      0.5     O
C      0.97686      0.5  0.03933     C
C      0.97686      0.5  0.96067     C
