data_I
_chemical_name_common  '/home/zhangsd/repos/MofS-CGCNN/ML/data/WS24/clean_cifs/YUQQEI'
_cell_length_a 14.81750
_cell_length_b 25.12300
_cell_length_c 16.45700
_cell_angle_alpha 90.00000
_cell_angle_beta  112.14800
_cell_angle_gamma 90.00000
_space_group_name_H-M_alt      'P 1'


loop_
_space_group_symop_operation_xyz
  'x, y, z' 

loop_
_atom_site_label
_atom_site_fract_x
_atom_site_fract_y
_atom_site_fract_z
_atom_site_type_symbol
C      0.00906  0.05616  0.07664     C
C      0.00906  0.94384  0.57664     C
H       0.0141   0.2439    0.118     H
H       0.0141   0.7561    0.618     H
C      0.01745  0.00475  0.04596     C
C      0.01745  0.99525  0.54596     C
H       0.0205   0.3353   0.1206     H
H       0.0205   0.6647   0.6206     H
O      0.02663  0.43037  0.36216     O
O      0.02663  0.56963  0.86216     O
C       0.0307  0.09651  0.48016     C
C       0.0307  0.90349  0.98016     C
C      0.03074  0.31799  0.37088     C
C      0.03074  0.68201  0.87088     C
H       0.0311   0.0625   0.1367     H
H       0.0311   0.9375   0.6367     H
C       0.0345  0.26341  0.37278     C
C       0.0345  0.73659  0.87278     C
O      0.03459  0.45193  0.64873     O
O      0.03459  0.54807  0.14873     O
H       0.0352   0.1303   0.4589     H
H       0.0352   0.8697   0.9589     H
H       0.0605   0.4444   0.0125     H
H       0.0605   0.5556   0.5125     H
C      0.06064  0.03825  0.60341     C
C      0.06064  0.96175  0.10341     C
C      0.06511  0.08766  0.57085     C
C      0.06511  0.91234  0.07085     C
Zn     0.08149  0.49535  0.85986    Zn
Zn     0.08149  0.50465  0.35986    Zn
H       0.0913   0.1158   0.6093     H
H       0.0913   0.8842   0.1093     H
N      0.09644  0.02768  0.69506     N
N      0.09644  0.97232  0.19506     N
C      0.09835  0.40657  0.35603     C
C      0.09835  0.59343  0.85603     C
C       0.1015  0.34754  0.35655     C
C       0.1015  0.65246  0.85655     C
H       0.1032   0.1482   0.2163     H
H       0.1032   0.8518   0.7163     H
O        0.108  0.18299  0.36316     O
O        0.108  0.81701  0.86316     O
C      0.11079  0.23755  0.36086     C
C      0.11079  0.76245  0.86086     C
H       0.1114   0.3998   0.5605     H
H       0.1114   0.6002   0.0605     H
C      0.11191  0.43989  0.70994     C
C      0.11191  0.56011  0.20994     C
H       0.1222   0.0024   0.8626     H
H       0.1222   0.9976   0.3626     H
C      0.12527  0.45499  0.03799     C
C      0.12527  0.54501  0.53799     C
O      0.13532  0.45323  0.78887     O
O      0.13532  0.54677  0.28887     O
H       0.1441   0.4292   0.1589     H
H       0.1441   0.5708   0.6589     H
C      0.16114   0.1386  0.26133     C
C      0.16114   0.8614  0.76133     C
N      0.16653  0.47813   0.9877     N
N      0.16653  0.52187   0.4877     N
O      0.16715  0.43285  0.35066     O
O      0.16715  0.56715  0.85066     O
C      0.16882  0.39013   0.6062     C
C      0.16882  0.60987   0.1062     C
C      0.17488  0.44615  0.12617     C
C      0.17488  0.55385  0.62617     C
C       0.1768  0.32096  0.34492     C
C       0.1768  0.67904  0.84492     C
C      0.17975  0.15431  0.34499     C
C      0.17975  0.84569  0.84499     C
C        0.181  0.04474  0.73897     C
C        0.181  0.95526  0.23897     C
C       0.1823  0.26631  0.34662     C
C       0.1823  0.73369  0.84662     C
C      0.18456  0.40631  0.69052     C
C      0.18456  0.59369  0.19052     C
C      0.18676  0.01361   0.8867     C
C      0.18676  0.98639   0.3867     C
H         0.21   0.0094    0.508     H
H         0.21   0.9906    0.008     H
H       0.2143   0.0628   0.7095     H
H       0.2143   0.9372   0.2095     H
H       0.2166   0.0973   0.1867     H
H       0.2166   0.9027   0.6867     H
H       0.2254   0.3405   0.3356     H
H       0.2254   0.6595   0.8356     H
H       0.2258   0.3491   0.5314     H
H       0.2258   0.6509   0.0314     H
C      0.22928  0.10821  0.24401     C
C      0.22928  0.89179  0.74401     C
C      0.22955  0.03755  0.83416     C
C      0.22955  0.96245  0.33416     C
H       0.2337   0.2491   0.3383     H
H       0.2337   0.7509   0.8383     H
C       0.2371  0.35976  0.58855     C
C       0.2371  0.64024  0.08855     C
C      0.23977  0.00661  0.97366     C
C      0.23977  0.99339  0.47366     C
C      0.26023  0.49339  0.02634     C
C      0.26023  0.50661  0.52634     C
C       0.2629  0.14024  0.41145     C
C       0.2629  0.85976  0.91145     C
H       0.2663   0.2509   0.6617     H
H       0.2663   0.7491   0.1617     H
C      0.27045  0.46245  0.16584     C
C      0.27045  0.53755  0.66584     C
C      0.27072  0.39179  0.75599     C
C      0.27072  0.60821  0.25599     C
H       0.2742   0.1509   0.4686     H
H       0.2742   0.8491   0.9686     H
H       0.2746   0.1595   0.6644     H
H       0.2746   0.8405   0.1644     H
H       0.2834   0.4027   0.8133     H
H       0.2834   0.5973   0.3133     H
H       0.2857   0.4372   0.2905     H
H       0.2857   0.5628   0.7905     H
H         0.29   0.4906    0.492     H
H         0.29   0.5094    0.992     H
C      0.31324  0.48639   0.1133     C
C      0.31324  0.51361   0.6133     C
C      0.31544  0.09369  0.30948     C
C      0.31544  0.90631  0.80948     C
C       0.3177  0.23369  0.65338     C
C       0.3177  0.76631  0.15338     C
C        0.319  0.45526  0.26103     C
C        0.319  0.54474  0.76103     C
C      0.32025  0.34569  0.65501     C
C      0.32025  0.65431  0.15501     C
C       0.3232  0.17904  0.65508     C
C       0.3232  0.82096  0.15508     C
C      0.32512  0.05385  0.87383     C
C      0.32512  0.94615  0.37383     C
C      0.33118  0.10987   0.3938     C
C      0.33118  0.89013   0.8938     C
O      0.33285  0.06715  0.64934     O
O      0.33285  0.93285  0.14934     O
N      0.33347  0.02187   0.0123     N
N      0.33347  0.97813   0.5123     N
C      0.33886   0.3614  0.73867     C
C      0.33886   0.6386  0.23867     C
H       0.3559   0.0708   0.8411     H
H       0.3559   0.9292   0.3411     H
O      0.36468  0.04677  0.21113     O
O      0.36468  0.95323  0.71113     O
C      0.37473  0.04501  0.96201     C
C      0.37473  0.95499  0.46201     C
H       0.3778   0.4976   0.1374     H
H       0.3778   0.5024   0.6374     H
C      0.38809  0.06011  0.29006     C
C      0.38809  0.93989  0.79006     C
H       0.3886   0.1002   0.4395     H
H       0.3886   0.8998   0.9395     H
C      0.38921  0.26245  0.63914     C
C      0.38921  0.73755  0.13914     C
O        0.392  0.31701  0.63684     O
O        0.392  0.68299  0.13684     O
H       0.3968   0.3518   0.7837     H
H       0.3968   0.6482   0.2837     H
C       0.3985  0.15246  0.64345     C
C       0.3985  0.84754  0.14345     C
C      0.40165  0.09343  0.64397     C
C      0.40165  0.90657  0.14397     C
N      0.40356  0.47232  0.30494     N
N      0.40356  0.52768  0.80494     N
H       0.4087   0.3842   0.3907     H
H       0.4087   0.6158   0.8907     H
Zn     0.41851  0.00465  0.14014    Zn
Zn     0.41851  0.99535  0.64014    Zn
C      0.43489  0.41234  0.42915     C
C      0.43489  0.58766  0.92915     C
C      0.43936  0.46175  0.39659     C
C      0.43936  0.53825  0.89659     C
H       0.4395   0.0556   0.9875     H
H       0.4395   0.9444   0.4875     H
H       0.4648   0.3697   0.5411     H
H       0.4648   0.6303   0.0411     H
O      0.46541  0.04807  0.35127     O
O      0.46541  0.95193  0.85127     O
C       0.4655  0.23659  0.62722     C
C       0.4655  0.76341  0.12722     C
H       0.4689   0.4375   0.8633     H
H       0.4689   0.5625   0.3633     H
C      0.46926  0.18201  0.62912     C
C      0.46926  0.81799  0.12912     C
C       0.4693  0.40349  0.51984     C
C       0.4693  0.59651  0.01984     C
O      0.47337  0.06963  0.63784     O
O      0.47337  0.93037  0.13784     O
H       0.4795   0.1647   0.8794     H
H       0.4795   0.8353   0.3794     H
C      0.48255  0.49525  0.95404     C
C      0.48255  0.50475  0.45404     C
H       0.4859   0.2561    0.882     H
H       0.4859   0.7439    0.382     H
C      0.49094  0.44384  0.92336     C
C      0.49094  0.55616  0.42336     C
C      0.50906  0.44384  0.57664     C
C      0.50906  0.55616  0.07664     C
H       0.5141   0.2561    0.618     H
H       0.5141   0.7439    0.118     H
C      0.51745  0.49525  0.54596     C
C      0.51745  0.50475  0.04596     C
H       0.5205   0.1647   0.6206     H
H       0.5205   0.8353   0.1206     H
O      0.52663  0.06963  0.86216     O
O      0.52663  0.93037  0.36216     O
C       0.5307  0.40349  0.98016     C
C       0.5307  0.59651  0.48016     C
C      0.53074  0.18201  0.87088     C
C      0.53074  0.81799  0.37088     C
H       0.5311   0.4375   0.6367     H
H       0.5311   0.5625   0.1367     H
C       0.5345  0.23659  0.87278     C
C       0.5345  0.76341  0.37278     C
O      0.53459  0.04807  0.14873     O
O      0.53459  0.95193  0.64873     O
H       0.5352   0.3697   0.9589     H
H       0.5352   0.6303   0.4589     H
H       0.5605   0.0556   0.5125     H
H       0.5605   0.9444   0.0125     H
C      0.56064  0.46175  0.10341     C
C      0.56064  0.53825  0.60341     C
C      0.56511  0.41234  0.07085     C
C      0.56511  0.58766  0.57085     C
Zn     0.58149  0.00465  0.35986    Zn
Zn     0.58149  0.99535  0.85986    Zn
H       0.5913   0.3842   0.1093     H
H       0.5913   0.6158   0.6093     H
N      0.59644  0.47232  0.19506     N
N      0.59644  0.52768  0.69506     N
C      0.59835  0.09343  0.85603     C
C      0.59835  0.90657  0.35603     C
C       0.6015  0.15246  0.85655     C
C       0.6015  0.84754  0.35655     C
H       0.6032   0.3518   0.7163     H
H       0.6032   0.6482   0.2163     H
O        0.608  0.31701  0.86316     O
O        0.608  0.68299  0.36316     O
C      0.61079  0.26245  0.86086     C
C      0.61079  0.73755  0.36086     C
H       0.6114   0.1002   0.0605     H
H       0.6114   0.8998   0.5605     H
C      0.61191  0.06011  0.20994     C
C      0.61191  0.93989  0.70994     C
H       0.6222   0.4976   0.3626     H
H       0.6222   0.5024   0.8626     H
C      0.62527  0.04501  0.53799     C
C      0.62527  0.95499  0.03799     C
O      0.63532  0.04677  0.28887     O
O      0.63532  0.95323  0.78887     O
H       0.6441   0.0708   0.6589     H
H       0.6441   0.9292   0.1589     H
C      0.66114   0.3614  0.76133     C
C      0.66114   0.6386  0.26133     C
N      0.66653  0.02187   0.4877     N
N      0.66653  0.97813   0.9877     N
O      0.66715  0.06715  0.85066     O
O      0.66715  0.93285  0.35066     O
C      0.66882  0.10987   0.1062     C
C      0.66882  0.89013   0.6062     C
C      0.67488  0.05385  0.62617     C
C      0.67488  0.94615  0.12617     C
C       0.6768  0.17904  0.84492     C
C       0.6768  0.82096  0.34492     C
C      0.67975  0.34569  0.84499     C
C      0.67975  0.65431  0.34499     C
C        0.681  0.45526  0.23897     C
C        0.681  0.54474  0.73897     C
C       0.6823  0.23369  0.84662     C
C       0.6823  0.76631  0.34662     C
C      0.68456  0.09369  0.19052     C
C      0.68456  0.90631  0.69052     C
C      0.68676  0.48639   0.3867     C
C      0.68676  0.51361   0.8867     C
H         0.71   0.4906    0.008     H
H         0.71   0.5094    0.508     H
H       0.7143   0.4372   0.2095     H
H       0.7143   0.5628   0.7095     H
H       0.7166   0.4027   0.6867     H
H       0.7166   0.5973   0.1867     H
H       0.7254   0.1595   0.8356     H
H       0.7254   0.8405   0.3356     H
H       0.7258   0.1509   0.0314     H
H       0.7258   0.8491   0.5314     H
C      0.72928  0.39179  0.74401     C
C      0.72928  0.60821  0.24401     C
C      0.72955  0.46245  0.33416     C
C      0.72955  0.53755  0.83416     C
H       0.7337   0.2509   0.8383     H
H       0.7337   0.7491   0.3383     H
C       0.7371  0.14024  0.08855     C
C       0.7371  0.85976  0.58855     C
C      0.73977  0.49339  0.47366     C
C      0.73977  0.50661  0.97366     C
C      0.76023  0.00661  0.52634     C
C      0.76023  0.99339  0.02634     C
C       0.7629  0.35976  0.91145     C
C       0.7629  0.64024  0.41145     C
H       0.7663   0.2491   0.1617     H
H       0.7663   0.7509   0.6617     H
C      0.77045  0.03755  0.66584     C
C      0.77045  0.96245  0.16584     C
C      0.77072  0.10821  0.25599     C
C      0.77072  0.89179  0.75599     C
H       0.7742   0.3491   0.9686     H
H       0.7742   0.6509   0.4686     H
H       0.7746   0.3405   0.1644     H
H       0.7746   0.6595   0.6644     H
H       0.7834   0.0973   0.3133     H
H       0.7834   0.9027   0.8133     H
H       0.7857   0.0628   0.7905     H
H       0.7857   0.9372   0.2905     H
H         0.79   0.0094    0.992     H
H         0.79   0.9906    0.492     H
C      0.81324  0.01361   0.6133     C
C      0.81324  0.98639   0.1133     C
C      0.81544  0.40631  0.80948     C
C      0.81544  0.59369  0.30948     C
C       0.8177  0.26631  0.15338     C
C       0.8177  0.73369  0.65338     C
C        0.819  0.04474  0.76103     C
C        0.819  0.95526  0.26103     C
C      0.82025  0.15431  0.15501     C
C      0.82025  0.84569  0.65501     C
C       0.8232  0.32096  0.15508     C
C       0.8232  0.67904  0.65508     C
C      0.82512  0.44615  0.37383     C
C      0.82512  0.55385  0.87383     C
C      0.83118  0.39013   0.8938     C
C      0.83118  0.60987   0.3938     C
O      0.83285  0.43285  0.14934     O
O      0.83285  0.56715  0.64934     O
N      0.83347  0.47813   0.5123     N
N      0.83347  0.52187   0.0123     N
C      0.83886   0.1386  0.23867     C
C      0.83886   0.8614  0.73867     C
H       0.8559   0.4292   0.3411     H
H       0.8559   0.5708   0.8411     H
O      0.86468  0.45323  0.71113     O
O      0.86468  0.54677  0.21113     O
C      0.87473  0.45499  0.46201     C
C      0.87473  0.54501  0.96201     C
H       0.8778   0.0024   0.6374     H
H       0.8778   0.9976   0.1374     H
C      0.88809  0.43989  0.79006     C
C      0.88809  0.56011  0.29006     C
H       0.8886   0.3998   0.9395     H
H       0.8886   0.6002   0.4395     H
C      0.88921  0.23755  0.13914     C
C      0.88921  0.76245  0.63914     C
O        0.892  0.18299  0.13684     O
O        0.892  0.81701  0.63684     O
H       0.8968   0.1482   0.2837     H
H       0.8968   0.8518   0.7837     H
C       0.8985  0.34754  0.14345     C
C       0.8985  0.65246  0.64345     C
C      0.90165  0.40657  0.14397     C
C      0.90165  0.59343  0.64397     C
N      0.90356  0.02768  0.80494     N
N      0.90356  0.97232  0.30494     N
H       0.9087   0.1158   0.8907     H
H       0.9087   0.8842   0.3907     H
Zn     0.91851  0.49535  0.64014    Zn
Zn     0.91851  0.50465  0.14014    Zn
C      0.93489  0.08766  0.92915     C
C      0.93489  0.91234  0.42915     C
C      0.93936  0.03825  0.89659     C
C      0.93936  0.96175  0.39659     C
H       0.9395   0.4444   0.4875     H
H       0.9395   0.5556   0.9875     H
H       0.9648   0.1303   0.0411     H
H       0.9648   0.8697   0.5411     H
O      0.96541  0.45193  0.85127     O
O      0.96541  0.54807  0.35127     O
C       0.9655  0.26341  0.12722     C
C       0.9655  0.73659  0.62722     C
H       0.9689   0.0625   0.3633     H
H       0.9689   0.9375   0.8633     H
C      0.96926  0.31799  0.12912     C
C      0.96926  0.68201  0.62912     C
C       0.9693  0.09651  0.01984     C
C       0.9693  0.90349  0.51984     C
O      0.97337  0.43037  0.13784     O
O      0.97337  0.56963  0.63784     O
H       0.9795   0.3353   0.3794     H
H       0.9795   0.6647   0.8794     H
C      0.98255  0.00475  0.45404     C
C      0.98255  0.99525  0.95404     C
H       0.9859   0.2439    0.382     H
H       0.9859   0.7561    0.882     H
C      0.99094  0.05616  0.42336     C
C      0.99094  0.94384  0.92336     C
