data_I
_chemical_name_common  '/home/zhangsd/repos/MofS-CGCNN/ML/data/WS24/clean_cifs/ZEVWII'
_cell_length_a  9.77600
_cell_length_b 15.01800
_cell_length_c 16.67300
_cell_angle_alpha 74.51000
_cell_angle_beta  76.80000
_cell_angle_gamma 78.27000
_space_group_name_H-M_alt      'P 1'


loop_
_space_group_symop_operation_xyz
  'x, y, z' 

loop_
_atom_site_label
_atom_site_fract_x
_atom_site_fract_y
_atom_site_fract_z
_atom_site_type_symbol
H       0.0018   0.2751   0.3294     H
H       0.0037   0.4369   0.9315     H
C       0.0207  0.39624  0.35564     C
H       0.0223   0.6114   0.9213     H
H       0.0238   0.1841   0.9417     H
H       0.0339   0.6151   0.5887     H
C        0.042  0.33118  0.30678     C
H       0.0455   0.1454   0.0841     H
N       0.0554  0.59994  0.41187     N
C       0.0623  0.36646  0.04391     C
C       0.0645  0.54574  0.37288     C
C        0.078  0.39584  0.95669     C
C       0.0802  0.47852  0.32218     C
H       0.0867   0.9509   0.3774     H
C       0.0967  0.13624  0.96123     C
C       0.1097  0.11286  0.04569     C
H       0.1157   0.7936   0.4502     H
C       0.1222  0.34711  0.22439     C
H       0.1326   0.8672   0.1714     H
C       0.1562  0.49666  0.23928     C
C       0.1564  0.27505   0.1745     C
H       0.1605   0.0957   0.5268     H
C       0.1613  0.92699  0.40876     C
C         0.17  0.30441  0.08121     C
C       0.1758  0.43154  0.19062     C
N        0.176    0.136  0.74673     N
H        0.178    0.213    0.591     H
C       0.1781  0.83375  0.45193     C
C       0.1836   0.1151  0.81663     C
C       0.1848  0.18328  0.21216     C
C       0.1922  0.08844  0.90538     C
H       0.1944   0.5534   0.2162     H
H       0.1966   0.7118   0.2414     H
C       0.2033  0.14857  0.49399     C
C       0.2035  0.36484  0.90604     C
C       0.2091  0.85127  0.20148     C
C       0.2111   0.1111  0.28534     C
C       0.2127  0.08672  0.20763     C
C       0.2148  0.21746  0.53243     C
C       0.2157  0.04221  0.07497     C
C       0.2258  0.40314  0.81608     C
H       0.2261   0.4445   0.1339     H
C        0.235  0.01967  0.16366     C
C       0.2367  0.08528   0.3654     C
C       0.2482  0.75877  0.24185     C
N       0.2489  0.43748  0.74531     N
C       0.2534  0.98614  0.41107     C
C       0.2543  0.15636  0.40715     C
C       0.2813  0.29343  0.48346     C
C       0.2816  0.92105   0.2048     C
C       0.2884  0.79987  0.49795     C
C       0.2935  0.27137  0.02944     C
C       0.2964  0.01591  0.93359     C
C       0.2966  0.36358  0.52347     C
C       0.3069  0.99239  0.01837     C
C       0.3079  0.70349  0.54339     C
N       0.3108  0.41796  0.55651     N
C       0.3116   0.3021  0.94201     C
N      0.32324  0.62687  0.57916     N
C       0.3242  0.23188  0.36012     C
Cu      0.3338 0.495461 0.628582    Cu
C        0.338  0.30038  0.39785     C
H       0.3595   0.9829   0.8951     H
H       0.3626   0.2361   0.3017     H
C        0.363  0.95063  0.45695     C
C       0.3635  0.73581  0.28279     C
H       0.3656   0.2275   0.0544     H
H       0.3763   0.9421   0.0383     H
C       0.3813  0.85779  0.50048     C
H       0.3854   0.3515   0.3658     H
H       0.3965   0.2807   0.9071     H
C       0.3973  0.89698  0.24664     C
C       0.4085  0.63976  0.32213     C
H        0.426   0.9905   0.4584     H
C       0.4399  0.80432  0.28465     C
H       0.4468   0.9442   0.2491     H
N       0.4516  0.56428   0.3521     N
H       0.4562   0.8339   0.5316     H
H       0.4799   0.2124   0.6883     H
H       0.5201   0.7876   0.3117     H
H       0.5438   0.1661   0.4684     H
N       0.5484  0.43572   0.6479     N
H       0.5532   0.0558   0.7509     H
C       0.5601  0.19568  0.71535     C
H        0.574   0.0095   0.5416     H
C       0.5915  0.36024  0.67787     C
C       0.6027  0.10302  0.75336     C
H       0.6035   0.7193   0.0929     H
H       0.6146   0.6485   0.6342     H
C       0.6187  0.14221  0.49952     C
H       0.6237   0.0579   0.9617     H
H       0.6344   0.7725   0.9456     H
C       0.6365  0.26419  0.71721     C
C        0.637  0.04937  0.54305     C
H       0.6374   0.7639   0.6983     H
H       0.6405   0.0171   0.1049     H
C        0.662  0.69962  0.60215     C
Cu      0.6662 0.504539 0.371418    Cu
C       0.6758  0.76812  0.63988     C
N      0.67676  0.37313  0.42084     N
C       0.6884   0.6979  0.05799     C
N       0.6892  0.58204  0.44349     N
C       0.6921  0.29651  0.45661     C
C       0.6931  0.00761  0.98163     C
C       0.7034  0.63642  0.47653     C
C       0.7036  0.98409  0.06641     C
C       0.7065  0.72863  0.97056     C
C       0.7116  0.20013  0.50205     C
C       0.7184  0.07895   0.7952     C
C       0.7187  0.70657  0.51654     C
C       0.7457  0.84364  0.59285     C
C       0.7466  0.01386  0.58893     C
N       0.7511  0.56252  0.25469     N
C       0.7518  0.24123  0.75815     C
C       0.7633  0.91472   0.6346     C
C        0.765  0.98033  0.83634     C
H       0.7739   0.5555   0.8661     H
C       0.7742  0.59686  0.18392     C
C       0.7843  0.95779  0.92503     C
C       0.7852  0.78254  0.46757     C
C       0.7873  0.91328  0.79237     C
C       0.7889   0.8889  0.71466     C
C       0.7909  0.14873  0.79852     C
C       0.7965  0.63516  0.09396     C
C       0.7967  0.85143  0.50601     C
H       0.8034   0.2882   0.7586     H
H       0.8056   0.4466   0.7838     H
C       0.8078  0.91156  0.09462     C
C       0.8152  0.81672  0.78784     C
C       0.8164   0.8849  0.18337     C
C       0.8219  0.16625  0.54807     C
H        0.822    0.787    0.409     H
N        0.824    0.864  0.25327     N
C       0.8242  0.56846  0.80938     C
C         0.83  0.69559  0.91879     C
C       0.8387  0.07301  0.59124     C
H       0.8395   0.9043   0.4732     H
C       0.8436  0.72495   0.8255     C
C       0.8438  0.50334  0.76072     C
H       0.8674   0.1328   0.8286     H
C       0.8778  0.65289  0.77561     C
H       0.8843   0.2064   0.5498     H
C       0.8903  0.88714  0.95431     C
C       0.9033  0.86376  0.03877     C
H       0.9133   0.0491   0.6226     H
C       0.9198  0.52148  0.67782     C
C        0.922  0.60416  0.04331     C
C       0.9355  0.45426  0.62712     C
C       0.9377  0.63354  0.95609     C
N       0.9446  0.40006  0.58813     N
H       0.9545   0.8546   0.9159     H
C        0.958  0.66882  0.69322     C
H       0.9661   0.3849   0.4113     H
H       0.9762   0.8159   0.0583     H
H       0.9777   0.3886   0.0787     H
C       0.9793  0.60376  0.64436     C
H       0.9963   0.5631   0.0685     H
H       0.9982   0.7249   0.6706     H
