data_I
_chemical_name_common  '/home/zhangsd/repos/MofS-CGCNN/ML/data/WS24/clean_cifs/ZIF-7'
_cell_length_a 22.98930
_cell_length_b 22.98930
_cell_length_c 15.76330
_cell_angle_alpha 90.00000
_cell_angle_beta  90.00000
_cell_angle_gamma 120.00000
_space_group_name_H-M_alt      'P 1'


loop_
_space_group_symop_operation_xyz
  'x, y, z' 

loop_
_atom_site_label
_atom_site_fract_x
_atom_site_fract_y
_atom_site_fract_z
_atom_site_type_symbol
H     0.001233 0.404867 0.494667     H
H     0.001567 0.859533 0.600033     H
H     0.001633 0.885067 0.744667     H
C      0.00316  0.72454  0.55974     C
C      0.00436  0.36624  0.49044     C
Zn    0.005233 0.737143 0.008274    Zn
C      0.00546  0.17844  0.42974     C
N      0.00782  0.32202  0.09002     N
H     0.010633 0.822867 0.167567     H
N      0.01132  0.35243  0.75672     N
H     0.013967 0.117533 0.738033     H
N      0.01463  0.64852  0.78182     N
C      0.01526  0.78044  0.60554     C
H     0.016167 0.194433 0.150133     H
N      0.01812  0.69942  0.11522     N
N      0.01913  0.67442  0.57662     N
C      0.02384  0.84644  0.84694     C
C      0.02824  0.28896  0.52044     C
C      0.02854  0.32906  0.82374     C
C      0.02954  0.17684  0.83674     C
H       0.0319   0.5089   0.7204     H
N      0.03272  0.34793  0.55152     N
C      0.03284  0.69524  0.84304     C
C      0.03504  0.89384  0.78424     C
H     0.036167 0.789733 0.658133     H
C      0.03696  0.19184  0.51044     C
C      0.04446  0.40604  0.18714     C
C      0.04484  0.14184  0.78044     C
C      0.04804  0.24676  0.55664     C
H     0.050333 0.162667 0.532167     H
C      0.05484  0.66366  0.22644     C
C      0.05794  0.38814  0.10694     C
C      0.05964  0.52516  0.67314     C
Zn    0.065245 0.661433 0.674934    Zn
H       0.0679   0.2553     0.61     H
H       0.0703   0.3321    0.828     H
Zn    0.070473 0.398575 0.658404    Zn
H     0.071533 0.736967 0.838667     H
C      0.07264  0.69494  0.14634     C
N      0.07442  0.25222  0.96722     N
C      0.07644  0.21314  0.90274     C
C      0.07764  0.86394  0.90674     C
H     0.078033 0.479267 0.276667     H
N      0.07913  0.58532  0.64252     N
N      0.08112  0.48883  0.63392     N
N      0.08132  0.82712  0.97592     N
C      0.08666  0.46804  0.22334     C
H       0.0869   0.6305   0.3248     H
C      0.09716  0.95524  0.78044     C
C      0.09864  0.65156  0.27224     C
H     0.103567 0.986033 0.738033     H
C      0.10624  0.14136  0.78424     C
H     0.112333 0.949667 0.532167     H
C      0.11384  0.43194  0.06114     C
H     0.114933 0.116567 0.744667     H
H     0.116567 0.001633 0.255333     H
H     0.117533 0.103567 0.261967     H
C      0.11966  0.58904  0.57334     C
C      0.12024  0.52996  0.56944     C
H     0.123067 0.420233 0.008533     H
C      0.13224  0.27374  0.00644     C
C      0.13464  0.71474  0.11014     C
C      0.13614  0.21386  0.90674     C
C      0.13686  0.92364  0.90274     C
H       0.1389   0.4884   0.8168     H
H     0.140467 0.142033 0.600033     H
C      0.14136  0.03504  0.21584     C
C      0.14164  0.51184  0.17704     C
C      0.14166  0.86784  0.00644     C
C      0.14184  0.09716  0.21964     C
H     0.142033 0.001567 0.399967     H
H     0.143667 0.301433 0.053733     H
H     0.145567 0.656033 0.834233     H
H     0.145933 0.734567 0.056667     H
C      0.14746  0.97054  0.83674     C
C      0.15364  0.17756  0.84694     C
C      0.15484  0.96316  0.51044     C
C      0.15504  0.49374  0.09634     C
H     0.155067 0.682833 0.516533     H
N      0.15553  0.74102  0.69942     N
C      0.15596  0.64284  0.51354     C
H       0.1562   0.4789   0.4991     H
C      0.15654  0.51936  0.50344     C
H     0.157767 0.856333 0.053733     H
N      0.16042  0.41243  0.69082     N
C      0.16044  0.67216  0.23704     C
H     0.162667 0.112333 0.467833     H
H     0.170667 0.554333 0.198833     H
N      0.17292  0.25433  0.97592     N
C      0.17294  0.99466  0.42974     C
H     0.175567 0.810333 0.612933     H
C      0.17684  0.14746  0.16334     C
H     0.177133 0.187767 0.167567     H
C      0.17756  0.02384  0.15314     C
N      0.17793  0.92562  0.96722     N
H     0.178267 0.983833 0.150133     H
C      0.17844  0.17294  0.57034     C
C      0.17854  0.70366  0.15634     C
C      0.17974  0.48926  0.81984     C
C      0.18606  0.69614  0.82994     C
H       0.1874   0.9321     0.61     H
H     0.187767 0.010633 0.832433     H
H     0.189667 0.365233 0.612933     H
H       0.1913   0.6651   0.2667     H
C      0.19154  0.56966  0.44714     C
C      0.19184  0.15484  0.48964     C
C      0.19186  0.79884  0.66024     C
C      0.19216  0.63164  0.45084     C
H     0.192867 0.524633 0.066633     H
H     0.194433 0.178267 0.849867     H
C      0.19666  0.74304  0.76394     C
C      0.19724  0.45296  0.76004     C
C      0.19874  0.95204  0.55664     C
C      0.20124  0.39294  0.66024     C
H     0.210267 0.246433 0.658133     H
C      0.21314  0.13686  0.09734     C
C      0.21386  0.07764  0.09334     C
H       0.2158   0.5631   0.4047     H
H     0.216767 0.665033 0.411333     H
H       0.2184   0.5501    0.922     H
C      0.21964  0.23474  0.60554     C
H        0.221    0.717   0.1345     H
C      0.22714  0.52546  0.88254     C
H     0.229767 0.680633 0.928633     H
C      0.23474  0.01526  0.39454     C
C      0.23636  0.71144  0.88624     C
H     0.246433 0.036167 0.341867     H
C      0.24676  0.19874  0.44344     C
N      0.25202  0.83962  0.69082     N
N      0.25222  0.17793  0.03282     N
N      0.25433  0.08132  0.02412     N
H       0.2553   0.1874     0.39     H
C      0.25574  0.80284  0.76004     C
C      0.25704  0.45354  0.76394     C
N      0.25902  0.41442  0.69942     N
C      0.26074  0.97184  0.52044     C
H       0.2618   0.9297    0.828     H
Zn    0.262863 0.268105 0.008274    Zn
H     0.263033 0.334567 0.838667     H
H     0.265433 0.411367 0.056667     H
Zn    0.268105 0.005233 0.991734    Zn
C      0.27374  0.14166  0.99364     C
C      0.27554  0.27854  0.55974     C
C      0.27854  0.00316  0.44034     C
H        0.283    0.504   0.1345     H
C      0.28534  0.42006  0.11014     C
C      0.28864  0.52484  0.88624     C
C      0.28896  0.26074  0.47964     C
C      0.29646  0.47494  0.15634     C
H     0.297167 0.876933 0.008533     H
C      0.29834  0.77294  0.88254     C
C      0.30054  0.97154  0.82374     C
N      0.30062  0.31883  0.11522     N
H     0.301433 0.157767 0.946267     H
C      0.30394  0.48984  0.82994     C
C      0.30484  0.33776  0.84304     C
C      0.30514  0.37786  0.14634     C
C      0.30954  0.82034  0.81984     C
N      0.31433  0.99222  0.09002     N
N      0.31522  0.96732  0.55152     N
H     0.317167 0.472233 0.516533     H
C      0.31826  0.88624  0.06114     C
N      0.31883  0.01812  0.88482     N
H     0.319367 0.549133 0.928633     H
N      0.32202  0.31433  0.91002     N
H       0.3227   0.8438   0.4991     H
N      0.32562  0.34462  0.57662     N
C      0.32796  0.48834  0.23704     C
Zn    0.328103 0.929533 0.658404    Zn
C      0.32906  0.30054  0.17634     C
C      0.33036  0.94214  0.10694     C
H       0.3317   0.7816    0.922     H
H     0.331767 0.807133 0.066633     H
H       0.3321   0.2618    0.172     H
H     0.334567 0.071533 0.161333     H
H       0.3349   0.5262   0.2667     H
H     0.334967 0.551733 0.411333     H
C      0.33646  0.39124  0.22644     C
C      0.33776  0.03284  0.15704     C
Zn    0.338573 0.403803 0.674934    Zn
C      0.33886  0.84504  0.09634     C
N      0.34112  0.98872  0.75672     N
H     0.343967 0.489533 0.834233     H
N      0.34462  0.01913  0.42342     N
H       0.3473   0.7842   0.4047     H
N      0.34793  0.31522  0.44852     N
C      0.34856  0.44714  0.27224     C
H       0.3495   0.8611   0.8168     H
N      0.35152  0.36602  0.78182     N
N      0.35243  0.34112  0.24332     N
C      0.35724  0.51304  0.51354     C
C      0.36154  0.95566  0.18714     C
C      0.36184  0.99576  0.49044     C
C      0.36284  0.84354  0.50344     C
H     0.365233 0.175567 0.387067     H
N      0.36602  0.01463  0.21822     N
C      0.36624  0.36184  0.50964     C
C      0.36844  0.56044  0.45084     C
H       0.3695   0.4564   0.3248     H
C      0.37036  0.85844  0.17704     C
C      0.37786  0.07264  0.85374     C
C      0.37814  0.80854  0.44714     C
C      0.38134  0.91346  0.22334     C
H     0.383667 0.829333 0.198833     H
C      0.38814  0.33036  0.89314     C
C      0.39124  0.05484  0.77364     C
C      0.39294  0.19186  0.33984     C
Zn    0.398575 0.328103 0.341604    Zn
H     0.401233 0.921967 0.276667     H
H     0.403633 0.998767 0.494667     H
Zn    0.403803 0.065245 0.325074    Zn
H     0.404867 0.403633 0.505333     H
C      0.40604  0.36154  0.81294     C
N      0.40772  0.91892  0.63392     N
C      0.40974  0.87984  0.56944     C
C      0.41104  0.53054  0.57334     C
H     0.411367 0.145933 0.943333     H
N      0.41243  0.25202  0.30922     N
N      0.41442  0.15553  0.30062     N
N      0.41472  0.49372  0.64252     N
C      0.42006  0.13464  0.88994     C
H     0.420233 0.297167 0.991467     H
C      0.43046  0.62194  0.44714     C
C      0.43194  0.31826  0.93894     C
H       0.4369   0.6527   0.4047     H
C      0.43964  0.80796  0.45084     C
H     0.445667 0.616333 0.198833     H
C      0.44714  0.09864  0.72784     C
H     0.448267 0.783233 0.411333     H
H       0.4499   0.6683    0.922     H
H     0.450867 0.770233 0.928633     H
C      0.45296  0.25574  0.24004     C
C      0.45354  0.19666  0.23614     C
H       0.4564   0.0869   0.6752     H
C      0.46554  0.94044  0.67314     C
C      0.46804  0.38134  0.77674     C
C      0.46954  0.88046  0.57334     C
C      0.47016  0.59034  0.56944     C
H     0.472233 0.155067 0.483467     H
H       0.4738   0.8087   0.2667     H
C      0.47466  0.70174  0.88254     C
C      0.47494  0.17854  0.84374     C
C      0.47496  0.53454  0.67314     C
C      0.47524  0.76376  0.88624     C
H     0.475367 0.668233 0.066633     H
H        0.477   0.9681   0.7204     H
H       0.4789   0.3227   0.5009     H
H     0.479267 0.401233 0.723333     H
C      0.48076  0.63724  0.50344     C
C      0.48704  0.84416  0.51354     C
C      0.48824  0.62976  0.17704     C
C      0.48834  0.16044  0.76304     C
H       0.4884   0.3495   0.1832     H
N      0.48883  0.40772  0.36612     N
C      0.48926  0.30954  0.18024     C
H     0.489533 0.145567 0.165767     H
C      0.48984  0.18606  0.17014     C
H       0.4911    0.523   0.7204     H
N      0.49372  0.07913  0.35752     N
C      0.49374  0.33886  0.90374     C
H        0.496    0.779   0.1345     H
H        0.504    0.221   0.8655     H
N      0.50632  0.92093  0.64252     N
C      0.50634  0.66126  0.09634     C
H       0.5089    0.477   0.2796     H
C      0.51024  0.81406  0.82994     C
H     0.510467 0.854433 0.834233     H
C      0.51086  0.69054  0.81984     C
N      0.51123  0.59232  0.63392     N
H       0.5116   0.6505   0.8168     H
C      0.51174  0.83964  0.23704     C
C      0.51184  0.37036  0.82304     C
C      0.51304  0.15596  0.48654     C
C      0.51936  0.36284  0.49664     C
H     0.520733 0.598767 0.276667     H
H       0.5211   0.6773   0.4991     H
H        0.523   0.0319   0.2796     H
H     0.524633 0.331767 0.933367     H
C      0.52484  0.23636  0.11384     C
C      0.52514  0.82154  0.15634     C
C      0.52516  0.46554  0.32694     C
C      0.52546  0.29834  0.11754     C
H       0.5262   0.1913   0.7333     H
H     0.527767 0.844933 0.516533     H
C      0.52996  0.40974  0.43064     C
C      0.53054  0.11966  0.42674     C
C      0.53204  0.61874  0.22334     C
C      0.53454  0.05964  0.32694     C
H       0.5436   0.9131   0.3248     H
C      0.54654  0.80346  0.76394     C
C      0.54716  0.74434  0.76004     C
H     0.549133 0.229767 0.071367     H
H       0.5501   0.3317    0.078     H
H     0.551733 0.216767 0.588667     H
C      0.55294  0.90144  0.27224     C
H     0.554333 0.383667 0.801167     H
C      0.56044  0.19216  0.54924     C
H       0.5631   0.3473   0.5953     H
C      0.56814  0.68186  0.06114     C
C      0.56966  0.37814  0.55294     C
H     0.579767 0.702833 0.008533     H
C      0.58006  0.86544  0.11014     C
N      0.58532  0.50632  0.35752     N
N      0.58562  0.84453  0.69942     N
N      0.58763  0.74802  0.69082     N
H     0.588633 0.854067 0.056667     H
C      0.58904  0.46954  0.42674     C
C      0.59034  0.12024  0.43064     C
N      0.59232  0.08112  0.36612     N
C      0.59404  0.63854  0.18714     C
H     0.595133 0.596367 0.494667     H
Zn    0.596203 0.934765 0.674934    Zn
H     0.596367 0.001233 0.505333     H
H     0.598767 0.078033 0.723333     H
Zn    0.601435 0.671903 0.658404    Zn
C      0.60714  0.80826  0.66024     C
C      0.60884  0.94524  0.22644     C
C      0.61194  0.66976  0.10694     C
H     0.616333 0.170667 0.801167     H
C      0.61874  0.08666  0.77674     C
C      0.62194  0.19154  0.55294     C
C      0.62226  0.92744  0.14634     C
C      0.62976  0.14164  0.82304     C
H       0.6305   0.5436   0.6752     H
C      0.63164  0.43964  0.54924     C
C      0.63384  0.63824  0.49044     C
N      0.63402  0.98543  0.78182     N
H     0.634767 0.824433 0.612933     H
C      0.63724  0.15654  0.49664     C
C      0.63824  0.00436  0.50964     C
C      0.63854  0.04446  0.81294     C
C      0.64284  0.48704  0.48654     C
N      0.64763  0.65892  0.75672     N
N      0.64852  0.63402  0.21822     N
H       0.6505   0.1389   0.1832     H
C      0.65156  0.55294  0.72784     C
N      0.65213  0.68482  0.55152     N
H       0.6527   0.2158   0.5953     H
N      0.65542  0.98093  0.57662     N
H     0.656033 0.510467 0.165767     H
N      0.65892  0.01132  0.24332     N
C      0.66126  0.15504  0.90374     C
Zn    0.661433 0.596203 0.325074    Zn
C      0.66236  0.96724  0.84304     C
C      0.66366  0.60884  0.77364     C
H     0.665033 0.448267 0.588667     H
H       0.6651   0.4738   0.7333     H
H     0.665433 0.928467 0.838667     H
H       0.6679   0.7382    0.828     H
H     0.668233 0.192867 0.933367     H
H       0.6683   0.2184    0.078     H
C      0.66976  0.05794  0.89314     C
C      0.67106  0.69954  0.82374     C
Zn    0.671903 0.070473 0.341604    Zn
C      0.67216  0.51174  0.76304     C
N      0.67442  0.65542  0.42342     N
H       0.6773   0.1562   0.5009     H
N      0.67802  0.68573  0.09002     N
H     0.680633 0.450867 0.071367     H
N      0.68123  0.98192  0.11522     N
C      0.68186  0.11384  0.93894     C
H     0.682833 0.527767 0.483467     H
N      0.68482  0.03272  0.44852     N
N      0.68573  0.00782  0.91002     N
C      0.69054  0.17974  0.18024     C
C      0.69494  0.62226  0.85374     C
C      0.69524  0.66236  0.15704     C
C      0.69614  0.51024  0.17014     C
H     0.698567 0.842233 0.053733     H
N      0.69942  0.68123  0.88482     N
C      0.69954  0.02854  0.17634     C
C      0.70174  0.22714  0.11754     C
H     0.702833 0.123067 0.991467     H
C      0.70366  0.52514  0.84374     C
C      0.71116  0.73934  0.52044     C
C      0.71144  0.47524  0.11384     C
C      0.71474  0.58006  0.88994     C
H        0.717    0.496   0.8655     H
C      0.72154  0.99696  0.55974     C
C      0.72454  0.72154  0.44034     C
C      0.72634  0.85846  0.00644     C
Zn    0.731905 0.994773 0.008274    Zn
H     0.734567 0.588633 0.943333     H
H     0.736967 0.665433 0.161333     H
Zn    0.737143 0.731905 0.991734    Zn
H       0.7382   0.0703    0.172     H
C      0.73934  0.02824  0.47964     C
N      0.74102  0.58562  0.30062     N
C      0.74304  0.54654  0.23614     C
C      0.74434  0.19724  0.24004     C
H       0.7447   0.8126     0.61     H
N      0.74573  0.91872  0.97592     N
N      0.74782  0.82213  0.96722     N
N      0.74802  0.16042  0.30922     N
C      0.75336  0.80134  0.55664     C
H     0.753567 0.963833 0.658133     H
C      0.76376  0.28864  0.11384     C
C      0.76534  0.98486  0.60554     C
H     0.770233 0.319367 0.071367     H
C      0.77294  0.47466  0.11754     C
H        0.779    0.283   0.8655     H
C      0.78044  0.76534  0.39454     C
H       0.7816   0.4499    0.078     H
H     0.783233 0.334967 0.588667     H
H       0.7842   0.4369   0.5953     H
C      0.78626  0.92244  0.90674     C
C      0.78694  0.86326  0.90274     C
H     0.789733 0.753567 0.341867     H
C      0.79884  0.60714  0.33984     C
C      0.80134  0.04804  0.44344     C
C      0.80284  0.54716  0.24004     C
C      0.80346  0.25704  0.23614     C
H     0.805567 0.821733 0.150133     H
H     0.807133 0.475367 0.933367     H
C      0.80796  0.36844  0.54924     C
C      0.80824  0.84524  0.51044     C
C      0.80826  0.20124  0.33984     C
C      0.80854  0.43046  0.55294     C
H       0.8087   0.3349   0.7333     H
H     0.810333 0.634767 0.387067     H
H     0.812233 0.989367 0.167567     H
H       0.8126   0.0679     0.39     H
C      0.81406  0.30394  0.17014     C
C      0.82034  0.51086  0.18024     C
C      0.82154  0.29646  0.84374     C
C      0.82164  0.82714  0.42974     C
H     0.821733 0.016167 0.849867     H
N      0.82213  0.07442  0.03282     N
C      0.82256  0.97624  0.84694     C
H     0.822867 0.812233 0.832433     H
C      0.82324  0.85266  0.83674     C
H     0.824433 0.189667 0.387067     H
N      0.82712  0.74573  0.02412     N
C      0.82714  0.00546  0.57034     C
H     0.829333 0.445667 0.801167     H
H     0.837333 0.887667 0.532167     H
N      0.83962  0.58763  0.30922     N
C      0.83964  0.32796  0.76304     C
H     0.842233 0.143667 0.946267     H
C      0.84354  0.48076  0.49664     C
H       0.8438   0.5211   0.5009     H
C      0.84416  0.35724  0.48654     C
N      0.84453  0.25902  0.30062     N
H     0.844933 0.317167 0.483467     H
C      0.84504  0.50634  0.90374     C
C      0.84524  0.03696  0.48964     C
C      0.84644  0.82256  0.15314     C
C      0.85266  0.02954  0.16334     C
H     0.854067 0.265433 0.943333     H
H     0.854433 0.343967 0.165767     H
H     0.856333 0.698567 0.946267     H
H     0.857967 0.998433 0.600033     H
C      0.85824  0.90296  0.78044     C
C      0.85844  0.48824  0.82304     C
C      0.85846  0.13224  0.99364     C
C      0.85876  0.96504  0.78424     C
H     0.859533 0.857967 0.399967     H
H       0.8611   0.5116   0.1832     H
C      0.86326  0.07644  0.09734     C
C      0.86394  0.78626  0.09334     C
C      0.86544  0.28534  0.88994     C
C      0.86784  0.72634  0.99364     C
H     0.876933 0.579767 0.991467     H
C      0.87984  0.47016  0.43064     C
C      0.88046  0.41104  0.42674     C
H     0.882467 0.896433 0.738033     H
H     0.883433 0.998367 0.744667     H
H     0.885067 0.883433 0.255333     H
C      0.88624  0.56814  0.93894     C
H     0.887667 0.050333 0.467833     H
C      0.89384  0.85876  0.21584     C
H     0.896433 0.013967 0.261967     H
C      0.90144  0.34856  0.72784     C
C      0.90296  0.04484  0.21964     C
H       0.9131   0.3695   0.6752     H
C      0.91346  0.53204  0.77674     C
N      0.91872  0.17292  0.02412     N
N      0.91892  0.51123  0.36612     N
N      0.92093  0.41472  0.35752     N
H     0.921967 0.520733 0.723333     H
C      0.92244  0.13614  0.09334     C
C      0.92364  0.78694  0.09734     C
N      0.92562  0.74782  0.03282     N
C      0.92744  0.30514  0.85374     C
H     0.928467 0.263033 0.161333     H
Zn    0.929533 0.601435 0.341604    Zn
H       0.9297   0.6679    0.172     H
H       0.9321   0.7447     0.39     H
Zn    0.934765 0.338573 0.325074    Zn
C      0.94044  0.47496  0.32694     C
C      0.94214  0.61194  0.89314     C
C      0.94524  0.33646  0.77364     C
H     0.949667 0.837333 0.467833     H
C      0.95204  0.75336  0.44344     C
C      0.95524  0.85824  0.21964     C
C      0.95566  0.59404  0.81294     C
C      0.96316  0.80824  0.48964     C
H     0.963833 0.210267 0.341867     H
C      0.96504  0.10624  0.21584     C
C      0.96724  0.30484  0.15704     C
N      0.96732  0.65213  0.44852     N
H       0.9681   0.4911   0.2796     H
C      0.97054  0.82324  0.16334     C
C      0.97154  0.67106  0.17634     C
C      0.97184  0.71116  0.47964     C
C      0.97624  0.15364  0.15314     C
N      0.98093  0.32562  0.42342     N
N      0.98192  0.30062  0.88482     N
H     0.983833 0.805567 0.849867     H
C      0.98486  0.21964  0.39454     C
N      0.98543  0.35152  0.21822     N
H     0.986033 0.882467 0.261967     H
N      0.98872  0.64763  0.24332     N
H     0.989367 0.177133 0.832433     H
N      0.99222  0.67802  0.91002     N
C      0.99466  0.82164  0.57034     C
Zn    0.994773 0.262863 0.991734    Zn
C      0.99576  0.63384  0.50964     C
C      0.99696  0.27554  0.44034     C
H     0.998367 0.114933 0.255333     H
H     0.998433 0.140467 0.399967     H
H     0.998767 0.595133 0.505333     H
