data_I
_chemical_name_common  '/home/zhangsd/repos/MofS-CGCNN/ML/data/WS24/clean_cifs/Zn-DMOF-NH2'
_cell_length_a  9.60841
_cell_length_b 10.92882
_cell_length_c 10.92882
_cell_angle_alpha 90.00000
_cell_angle_beta  90.00000
_cell_angle_gamma 90.00000
_space_group_name_H-M_alt      'P 1'


loop_
_space_group_symop_operation_xyz
  'x, y, z' 

loop_
_atom_site_label
_atom_site_fract_x
_atom_site_fract_y
_atom_site_fract_z
_atom_site_type_symbol
C          0.0  0.12752      0.5     C
C          0.0      0.5  0.12752     C
C          0.0      0.5 0.7352200000000001     C
C          0.0 0.7352200000000001      0.5     C
O     0.1154317 0.3176716  0.48388     O
O     0.1154317  0.48388 0.3176716     O
O     0.1154317  0.48388 0.6823316     O
O     0.1154317 0.6823316  0.48388     O
C     0.12191999999999999 0.0633418      0.5     C
C     0.12191999999999999      0.5 0.0633418     C
C     0.12191999999999999      0.5 0.9366618     C
C     0.12191999999999999 0.9366618      0.5     C
Zn    0.150063      0.5      0.5    Zn
H     0.220514      0.5 0.887516     H
H     0.220514 0.887516      0.5     H
H     0.2455361604181582 0.22027736973386194 0.49999999999999983     H
H     0.24553616041815862 0.49999999999999994 1.2202773697338616     H
N     0.24599240382055854 0.12694702120334475      0.5     N
N     0.2459924038205587      0.5 1.1269470212033443     N
H     0.33815433700337166 0.08062922747529971      0.5     H
H     0.3381543370033718      0.5 1.0806292274752993     H
N      0.36594      0.5      0.5     N
H      0.38238 0.670366  0.41864     H
H      0.38238 0.670366  0.58136     H
H     0.383203  0.32204 0.563039     H
H     0.383203 0.43716600000000005 0.678032     H
H     0.38320799999999994 0.322052 0.437111     H
H     0.38320799999999994 0.437111 0.322052     H
C     0.41946999999999995  0.62297      0.5     C
C      0.42017  0.41315  0.41315     C
C      0.42017  0.41315  0.58695     C
C      0.57997  0.41315  0.41315     C
C      0.57997  0.41315  0.58695     C
C      0.58067  0.62297      0.5     C
H     0.6169419999999999 0.322056 0.43711600000000006     H
H     0.6169419999999999 0.43711600000000006 0.322056     H
H     0.6169469999999999 0.322044 0.563034     H
H     0.6169469999999999  0.43717 0.678028     H
H      0.61777  0.67036  0.41864     H
H      0.61777  0.67036  0.58136     H
N      0.63414      0.5      0.5     N
H     0.7795149999999998 0.112471      0.5     H
H     0.7795149999999998      0.5 0.112471     H
H     0.779522      0.5 0.887522     H
H     0.779522 0.887522      0.5     H
Zn    0.849943      0.5      0.5    Zn
C      0.87812 0.0633418      0.5     C
C      0.87812      0.5 0.0633418     C
C      0.87812      0.5 0.9366618     C
C      0.87812 0.9366618      0.5     C
O     0.8845717 0.3176716  0.48388     O
O     0.8845717  0.48388 0.3176716     O
O     0.8845717  0.48388 0.6823316     O
O     0.8845717 0.6823316  0.48388     O
C          1.0  0.26482      0.5     C
C          1.0      0.5  0.26482     C
C          1.0      0.5  0.87252     C
C          1.0  0.87252      0.5     C
