data_I
_chemical_name_common  '/home/zhangsd/repos/MofS-CGCNN/ML/data/WS24/clean_cifs/Zn-MOF-508'
_cell_length_a  7.79112
_cell_length_b  9.29842
_cell_length_c 10.62820
_cell_angle_alpha 65.32070
_cell_angle_beta  86.19970
_cell_angle_gamma 78.14570
_space_group_name_H-M_alt      'P 1'


loop_
_space_group_symop_operation_xyz
  'x, y, z' 

loop_
_atom_site_label
_atom_site_fract_x
_atom_site_fract_y
_atom_site_fract_z
_atom_site_type_symbol
H       0.0165   0.5925   0.3224     H
C      0.02595  0.44065  0.85224     C
C      0.04234  0.11244  0.54284     C
C      0.04505  0.48515  0.06494     C
C      0.06225  0.53145  0.26634     C
H       0.0702   0.1885   0.5722     H
H       0.1237   0.3796   0.8755     H
C      0.12524  0.86444  0.51124     C
C      0.16754  0.97774  0.55314     C
C       0.1752 0.350316 0.133215     C
H       0.2048   0.2692   0.0989     H
O      0.21034  0.61622  0.49102     O
N      0.21554  0.43424  0.30714     N
C      0.26024  0.72034  0.52064     C
C     0.260318 0.332316 0.249014     C
H       0.2818   0.9623   0.5886     H
H       0.2995   0.0044   0.8424     H
O      0.32764  0.26694  0.64872     O
H       0.3475   0.7935   0.0724     H
H       0.3548   0.2435   0.2884     H
Zn    0.364884 0.436754 0.455893    Zn
C      0.37585  0.00504  0.90994     C
C      0.40835  0.87634  0.03874     C
O      0.41584  0.71582  0.55402     O
C      0.43834  0.26724  0.72914     C
C      0.46764  0.12924  0.87044     C
O      0.47174  0.62664  0.29922     O
O      0.52834  0.37344  0.70082     O
C      0.53244  0.87084  0.12964     C
C      0.56174  0.73284  0.27094     C
O      0.58424  0.28422  0.44602     O
C      0.59175  0.12374  0.96134     C
C      0.62425  0.99504  0.09014     C
Zn    0.635124 0.563254 0.544113    Zn
H       0.6452   0.7565   0.7116     H
H       0.6535   0.2075   0.9284     H
O      0.67244  0.73314  0.35132     O
H       0.7015   0.9964   0.1584     H
H       0.7182   0.0377   0.4114     H
C     0.739718 0.667716 0.751014     C
C      0.73984  0.27974  0.47944     C
N      0.78454  0.56584  0.69294     N
O      0.78974  0.38382  0.50902     O
H       0.7952   0.7308   0.9011     H
C       0.8252 0.649716 0.866815     C
C      0.83254  0.02234  0.44694     C
C      0.87484  0.13564  0.48884     C
H       0.8777   0.6216   0.1255     H
H       0.9298   0.8115   0.4278     H
C      0.93785  0.46865  0.73374     C
C      0.95505  0.51495  0.93514     C
C      0.95774  0.88764  0.45724     C
C      0.97415  0.55945  0.14784     C
H       0.9845   0.4085   0.6784     H
