data_I
_chemical_name_common  '/home/zhangsd/repos/MofS-CGCNN/ML/data/WS24/clean_cifs/Zn-MOF-508-72'
_cell_length_a 10.88630
_cell_length_b 10.91930
_cell_length_c 14.09130
_cell_angle_alpha 89.29440
_cell_angle_beta  89.08140
_cell_angle_gamma 79.69130
_space_group_name_H-M_alt      'P 1'


loop_
_space_group_symop_operation_xyz
  'x, y, z' 

loop_
_atom_site_label
_atom_site_fract_x
_atom_site_fract_y
_atom_site_fract_z
_atom_site_type_symbol
Zn    -0.276523 0.835913 0.800742    Zn
Zn    -0.272283 0.839203 0.591232    Zn
O     -0.09232  0.82482 0.7701816     O
O     -0.08692  0.82832 0.6098814     O
C     -0.03824  0.82934  0.69172     C
H       0.0794    0.193   0.7339     H
O      0.08692  0.17172 0.3901214     O
H       0.0883   0.1917   0.5713     H
O      0.09232  0.17522 0.2298216     O
C      0.09844  0.83364  0.69212     C
H       0.1144   0.8765   0.5526     H
H        0.122   0.7965   0.8322     H
H       0.1221   0.0875   1.0385     H
H       0.1351   0.0742   0.8807     H
C      0.15754  0.18264  0.70132     C
C      0.16034  0.85944  0.60942     C
C      0.16414  0.81444  0.77552     C
C      0.16434  0.18144  0.60512     C
H       0.1759   0.5834   0.1782     H
C      0.18751  0.11761  1.00547     C
C      0.19259  0.11531  0.91217     C
H        0.206   0.7871   0.1704     H
C      0.21817  0.61427  0.22875     C
C      0.23087  0.73837  0.22544     C
O      0.25484  0.34602 0.3751716     O
C      0.25704  0.39974  0.29802     C
O      0.25724  0.35002 0.2186516     O
C      0.26064  0.53754  0.29692     C
N      0.26942  0.16702 0.5557016     N
Zn    0.272283 0.160803 0.408772    Zn
Zn    0.272283 1.160803 0.408772    Zn
C      0.27234  0.16744  0.75182     C
C      0.27304  0.16664  0.85772     C
N      0.27642  0.16342 0.0547317     N
Zn    0.276523 0.164093 0.199262    Zn
Zn    0.276523 0.164093 1.199262    Zn
Zn    0.276523 1.164093 0.199262    Zn
C      0.27804  0.79044  0.29942     C
C      0.28874  0.86094  0.60754     C
C      0.29004  0.92314  0.30022     C
C      0.29264  0.82084  0.77872     C
O      0.29334 -0.02502 0.3788816     O
O      0.29494 -0.02212 0.2224916     O
C      0.33037  0.58107  0.37384     C
H       0.3309   0.8739   0.5497     H
C      0.33287  0.71105  0.37594     C
H       0.3366   0.8107   0.8368     H
C      0.35161 0.211111  1.00287     C
C      0.35284  0.84254  0.69312     C
C      0.36099  0.21731  0.90727     C
H       0.3703   0.7452   0.4273     H
H        0.372   0.5253   0.4201     H
C      0.37604  0.15074  0.60162     C
C      0.37944  0.15234  0.70022     C
H       0.4105   0.2482   1.0361     H
H       0.4235    0.254   0.8758     H
H       0.4523   0.1376   0.5663     H
O      0.45532  0.14774 0.3869914     O
H       0.4573   0.1427   0.7313     H
O      0.45902  0.15322 0.2290416     O
C      0.48774  0.84734  0.69292     C
C      0.51234  0.15274  0.30712     C
O      0.54102  0.84682 0.7709616     O
H       0.5427   0.8573   0.2687     H
O      0.54472  0.85234 0.6130114     O
H       0.5477   0.8624   0.4337     H
H       0.5765    0.746   0.1242     H
H       0.5895   0.7518  -0.0361     H
C      0.62064  0.84774  0.29982     C
C      0.62404  0.84934  0.39842     C
C      0.63919  0.78271  0.09287     C
C      0.64724  0.15754  0.30692     C
H       0.6474   0.2464   0.8336     H
C      0.64841 0.788911 -0.00287     C
H       0.6634   0.1893   0.1632     H
H       0.6691   0.1261   0.4503     H
H       0.6702   0.4547    0.835     H
C      0.68231  0.28198  0.78007     C
C      0.69431  0.40687  0.77987     C
O      0.70514  0.02212 0.7775116     O
O      0.70674  0.02502 0.6211216     O
C      0.70744  0.17924  0.22132     C
C      0.71004  0.07694  0.69982     C
C      0.71134  0.13914  0.39254     C
C      0.72204  0.20964  0.70062     C
Zn    0.723483 -0.164093 0.800742    Zn
Zn    0.723483 0.835913 -0.199262    Zn
Zn    0.723483 0.835913 0.800742    Zn
N      0.72362  0.83662 -0.0547317     N
C      0.72704  0.83344  0.14232     C
Zn    0.727723 -0.160803 0.591232    Zn
Zn    0.727723 0.839203 0.591232    Zn
C      0.72774  0.83264  0.24822     C
N      0.73062  0.83302 0.4443016     N
C      0.73944  0.46254  0.70312     C
O      0.74284  0.65002 0.7813516     O
C      0.74304  0.60034  0.70202     C
O      0.74524  0.65402 0.6248316     O
C      0.78051  0.26928  0.62847     C
C      0.78648  0.38517  0.62815     C
C      0.80759  0.88471  0.08797     C
C      0.81251  0.88241 -0.00547     C
H        0.818   0.2204   0.5768     H
H        0.824   0.4195   0.5752     H
C      0.83574  0.81864  0.39492     C
C      0.83594  0.18564  0.22452     C
C      0.83974  0.14064  0.39062     C
C      0.84254  0.81744  0.29872     C
H       0.8649   0.9258   0.1193     H
H       0.8779   0.9125  -0.0385     H
H        0.878   0.2035   0.1678     H
H       0.8856   0.1235   0.4474     H
C      0.90164  0.16644  0.30792     C
H       0.9117   0.8083   0.4287     H
H       0.9206    0.807   0.2661     H
C      1.03824  0.17074  0.30832     C
Zn    1.272283 0.160803 0.408772    Zn
Zn    1.276523 0.164093 0.199262    Zn
