data_I
_chemical_name_common  '/home/zhangsd/repos/MofS-CGCNN/ML/data/WS24/clean_cifs/Zn-MOF-508-TM'
_cell_length_a 10.87731
_cell_length_b 10.87731
_cell_length_c 13.96430
_cell_angle_alpha 90.00000
_cell_angle_beta  90.00000
_cell_angle_gamma 90.00000
_space_group_name_H-M_alt      'P 1'


loop_
_space_group_symop_operation_xyz
  'x, y, z' 

loop_
_atom_site_label
_atom_site_fract_x
_atom_site_fract_y
_atom_site_fract_z
_atom_site_type_symbol
Zn         0.0      0.0 0.103176    Zn
N          0.0      0.0  0.24774     N
C          0.0      0.0  0.44787     C
C          0.0      0.0  0.55227     C
N          0.0      0.0  0.75234     N
Zn         0.0      0.0 0.896836    Zn
C          0.0  0.23555      0.0     C
C          0.0  0.37365      0.0     C
C          0.0  0.62645      0.0     C
C          0.0  0.76455      0.0     C
C     0.028315   0.9033   0.7052     C
O      0.03054  0.81844  0.07614     O
O      0.03054  0.81844  0.92394     O
H         0.04   0.8293   0.7386     H
C     0.042715 0.902017  0.60467     C
H       0.0758   0.8221   0.6046     H
C       0.0784   0.9224   0.2984     C
C      0.09195  0.43665  0.05044     C
C      0.09195  0.56345  0.05044     C
C     0.098017 0.957315  0.39547     C
H       0.1483   0.8853   0.2711     H
H       0.1552   0.3148   0.1511     H
H       0.1552   0.6852   0.1511     H
H       0.1779   0.9242   0.3954     H
O      0.18164  0.03054  0.07614     O
O      0.18164  0.03054  0.92394     O
C      0.19197  0.36677  0.10235     C
C      0.19197  0.63337  0.10235     C
C      0.23555      0.0      0.0     C
H       0.2366    0.316    0.057     H
H       0.2366    0.684    0.057     H
H        0.248   0.4244   0.1323     H
H        0.248   0.5756   0.1323     H
H       0.3148   0.1552   0.8489     H
H       0.3148   0.8448   0.1511     H
H        0.316   0.2366    0.943     H
H        0.316   0.7634    0.057     H
C      0.36677  0.19197  0.89775     C
C      0.36677  0.80817  0.10235     C
C      0.37365      0.0      0.0     C
H       0.4244    0.248   0.8677     H
H       0.4244    0.752   0.1323     H
C      0.43665  0.09195  0.94964     C
C      0.43665  0.90815  0.05044     C
C      0.56345  0.09195  0.94964     C
C      0.56345  0.90815  0.05044     C
H       0.5756    0.248   0.8677     H
H       0.5756    0.752   0.1323     H
C      0.62645      0.0      0.0     C
C      0.63337  0.19197  0.89775     C
C      0.63337  0.80817  0.10235     C
H        0.684   0.2366    0.943     H
H        0.684   0.7634    0.057     H
H       0.6852   0.1552   0.8489     H
H       0.6852   0.8448   0.1511     H
H        0.752   0.4244   0.8677     H
H        0.752   0.5756   0.8677     H
H       0.7634    0.316    0.943     H
H       0.7634    0.684    0.943     H
C      0.76455      0.0      0.0     C
C      0.80817  0.36677  0.89775     C
C      0.80817  0.63337  0.89775     C
O      0.81844  0.96954  0.07614     O
O      0.81844  0.96954  0.92394     O
H       0.8221   0.0758   0.3954     H
H       0.8221   0.0758   0.6046     H
H       0.8293     0.04   0.2614     H
H       0.8448   0.3148   0.8489     H
H       0.8448   0.6852   0.8489     H
H       0.8517   0.1147   0.7289     H
C     0.902017 0.042715  0.39547     C
C     0.902017 0.042715  0.60467     C
C       0.9033 0.028315   0.2952     C
C      0.90815  0.43665  0.94964     C
C      0.90815  0.56345  0.94964     C
C       0.9224   0.0784   0.7024     C
O      0.96954  0.18164  0.07614     O
O      0.96954  0.18164  0.92394     O
