data_I
_chemical_name_common  '/home/zhangsd/repos/MofS-CGCNN/ML/data/WS24/clean_cifs/Zn-TTC'
_cell_length_a 20.79294
_cell_length_b 20.79294
_cell_length_c 20.79294
_cell_angle_alpha 90.00000
_cell_angle_beta  90.00000
_cell_angle_gamma 90.00000
_space_group_name_H-M_alt      'P 1'


loop_
_space_group_symop_operation_xyz
  'x, y, z' 

loop_
_atom_site_label
_atom_site_fract_x
_atom_site_fract_y
_atom_site_fract_z
_atom_site_type_symbol
H       0.0013   0.6877   0.7913     H
H       0.0013   0.8123   0.2913     H
H       0.0018   0.0342   0.1154     H
H       0.0018   0.4658   0.6154     H
C     0.0050518 0.7210118 0.2555317     C
C     0.0050518 0.7789918 0.7555317     C
H       0.0073   0.1559   0.8109     H
H       0.0073   0.3441   0.3109     H
Zn    0.008512 0.558042 0.263852    Zn
Zn    0.008512 0.941962 0.763852    Zn
H       0.0144   0.5613   0.1406     H
H       0.0144   0.9387   0.6406     H
O     0.0145814 0.1716413 0.2168713     O
O     0.0145814 0.3283613 0.7168713     O
O     0.0206517 0.0427714 0.7676917     O
O     0.0206517 0.4572314 0.2676917     O
O     0.0260512 0.0602712 0.1462612     O
O     0.0260512 0.4397312 0.6462612     O
C     0.0285317 0.2147617 0.7331217     C
C     0.0285317 0.2852417 0.2331217     C
O     0.0323413 0.5805113 0.1767013     O
O     0.0323413 0.9194913 0.6767013     O
H       0.0342   0.1154   0.0018     H
H       0.0342   0.3846   0.5018     H
Zn    0.036352 0.154072 0.120582    Zn
Zn    0.036352 0.345932 0.620582    Zn
O     0.0427714 0.7323117 0.5206517     O
O     0.0427714 0.7676917 0.0206517     O
C     0.0453418 0.1782317 0.7942417     C
C     0.0453418 0.3217717 0.2942417     C
O     0.0508714 0.6871416 0.0894016     O
O     0.0508714 0.8128616 0.5894016     O
O     0.0510413 0.2473713 0.5955912     O
O     0.0510413 0.2526313 0.0955912     O
O     0.0525114 0.7232314 0.2189616     O
O     0.0525114 0.7767714 0.7189616     O
Zn    0.058042 0.236152 0.991492    Zn
Zn    0.058042 0.263852 0.491492    Zn
O     0.0602712 0.1462612 0.0260512     O
O     0.0602712 0.3537412 0.5260512     O
H       0.0613   0.1406   0.4856     H
H       0.0613   0.3594   0.9856     H
O     0.0629216 0.6643218 0.4056417     O
O     0.0629216 0.8356818 0.9056417     O
C      0.06542 0.0698618  0.73822     C
C      0.06542 0.4301418  0.23822     C
O      0.06802 0.1959916 0.9019414     O
O      0.06802 0.3040116 0.4019414     O
C     0.0698618  0.73822  0.06542     C
C     0.0698618  0.76182  0.56542     C
C      0.07722 0.2173918 0.8475117     C
C      0.07722 0.2826118 0.3475117     C
O     0.0805113 0.1767013 0.4676613     O
O     0.0805113 0.3233013 0.9676613     O
C     0.0826117 0.2049917 0.6247017     C
C     0.0826117 0.2950117 0.1247017     C
O     0.0894016 0.0508714 0.6871416     O
O     0.0894016 0.4491314 0.1871416     O
C     0.0918317 0.2159717 0.6959817     C
C     0.0918317 0.2840317 0.1959817     C
C     0.0941718 0.1299218 0.7689118     C
C     0.0941718 0.3700818 0.2689118     C
O     0.0943617 0.5629216 0.6643218     O
O     0.0943617 0.9370816 0.1643218     O
O     0.0955912 0.0510413 0.2526313     O
O     0.0955912 0.4489613 0.7526313     O
Zn    0.097972 0.647692 0.172242    Zn
Zn    0.097972 0.852312 0.672242    Zn
O     0.0980614  0.56802 0.3040116     O
O     0.0980614  0.93202 0.8040116     O
O     0.0991213 0.1045816 0.3438814     O
O     0.0991213 0.3954216 0.8438814     O
O     0.1045816 0.1561214 0.5991213     O
O     0.1045816 0.3438814 0.0991213     O
O     0.1121716 0.2365616 0.3339214     O
O     0.1121716 0.2634416 0.8339214     O
H       0.1131   0.2425   0.2027     H
H       0.1131   0.2575   0.7027     H
H       0.1154   0.0018   0.0342     H
H       0.1154   0.4982   0.5342     H
H       0.1169   0.6957   0.6224     H
H       0.1169   0.8043   0.1224     H
Zn    0.120582 0.036352 0.154072    Zn
Zn    0.120582 0.463652 0.654072    Zn
H       0.1224   0.1169   0.8043     H
H       0.1224   0.3831   0.3043     H
C     0.1247017 0.0826117 0.2950117     C
C     0.1247017 0.4173917 0.7950117     C
C     0.1299218 0.7310918 0.5941718     C
C     0.1299218 0.7689118 0.0941718     C
O     0.1312912 0.1653112 0.7227312     O
O     0.1312912 0.3346912 0.2227312     O
O     0.1339812 0.1339812 0.1339812     O
O     0.1339812 0.3660212 0.6339812     O
H       0.1406   0.0144   0.5613     H
H       0.1406   0.4856   0.0613     H
O     0.1462612 0.0260512 0.0602712     O
O     0.1462612 0.4739512 0.5602712     O
Zn    0.147692 0.172242 0.402032    Zn
Zn    0.147692 0.327762 0.902032    Zn
C     0.1524917  0.57722 0.2826118     C
C     0.1524917  0.92282 0.7826118     C
Zn    0.154072 0.120582 0.036352    Zn
Zn    0.154072 0.379422 0.536352    Zn
H       0.1559   0.6891   0.5073     H
H       0.1559   0.8109   0.0073     H
O     0.1561214 0.5991213 0.1045816     O
O     0.1561214 0.9008813 0.6045816     O
O     0.1643218 0.0943617 0.9370816     O
O     0.1643218 0.4056417 0.4370816     O
O     0.1653112 0.7227312 0.1312912     O
O     0.1653112 0.7772712 0.6312912     O
O     0.1660814 0.6121716 0.2365616     O
O     0.1660814 0.8878316 0.7365616     O
O     0.1716413 0.2168713 0.0145814     O
O     0.1716413 0.2831313 0.5145814     O
Zn    0.172242 0.097972 0.647692    Zn
Zn    0.172242 0.402032 0.147692    Zn
O     0.1767013 0.0323413 0.5805113     O
O     0.1767013 0.4676613 0.0805113     O
C     0.1782317 0.7057617 0.5453418     C
C     0.1782317 0.7942417 0.0453418     C
O     0.1871416 0.0894016 0.4491314     O
O     0.1871416 0.4106016 0.9491314     O
H       0.1877   0.7087   0.9987     H
H       0.1877   0.7913   0.4987     H
H       0.1891   0.5073   0.3441     H
H       0.1891   0.9927   0.8441     H
H       0.1957   0.6224   0.3831     H
H       0.1957   0.8776   0.8831     H
C     0.1959817 0.0918317 0.2840317     C
C     0.1959817 0.4081717 0.7840317     C
O     0.1959916 0.5980614  0.56802     O
O     0.1959916 0.9019414  0.06802     O
H       0.2027   0.1131   0.2425     H
H       0.2027   0.3869   0.7425     H
C     0.2049917 0.6247017 0.0826117     C
C     0.2049917 0.8753017 0.5826117     C
C     0.2057617 0.5453418 0.3217717     C
C     0.2057617 0.9546618 0.8217717     C
H       0.2087   0.5013   0.8123     H
H       0.2087   0.9987   0.3123     H
C     0.2147617 0.7331217 0.0285317     C
C     0.2147617 0.7668817 0.5285317     C
C     0.2159717 0.6959817 0.0918317     C
C     0.2159717 0.8040217 0.5918317     C
O     0.2168713 0.0145814 0.1716413     O
O     0.2168713 0.4854214 0.6716413     O
C     0.2173918 0.6524917  0.57722     C
C     0.2173918 0.8475117  0.07722     C
O     0.2189616 0.0525114 0.7232314     O
O     0.2189616 0.4474914 0.2232314     O
C     0.2210118 0.2444717 0.9949518     C
C     0.2210118 0.2555317 0.4949518     C
O     0.2227312 0.1312912 0.3346912     O
O     0.2227312 0.3687112 0.8346912     O
O     0.2232314 0.2189616 0.4474914     O
O     0.2232314 0.2810416 0.9474914     O
C     0.2310918 0.5941718 0.3700818     C
C     0.2310918 0.9058318 0.8700818     C
O     0.2323117 0.5206517 0.4572314     O
O     0.2323117 0.9793517 0.9572314     O
C     0.2331217 0.0285317 0.2852417     C
C     0.2331217 0.4714717 0.7852417     C
Zn    0.236152 0.508512 0.558042    Zn
Zn    0.236152 0.991492 0.058042    Zn
O     0.2365616 0.1660814 0.6121716     O
O     0.2365616 0.3339214 0.1121716     O
C      0.23822  0.06542 0.4301418     C
C      0.23822  0.43462 0.9301418     C
H       0.2425   0.2027   0.1131     H
H       0.2425   0.2973   0.6131     H
C     0.2444717 0.5050518 0.7210118     C
C     0.2444717 0.9949518 0.2210118     C
O     0.2473713 0.5955912 0.0510413     O
O     0.2473713 0.9044112 0.5510413     O
O     0.2526313 0.0955912 0.0510413     O
O     0.2526313 0.4044112 0.5510413     O
C     0.2555317 0.0050518 0.7210118     C
C     0.2555317 0.4949518 0.2210118     C
H       0.2575   0.7027   0.1131     H
H       0.2575   0.7973   0.6131     H
C      0.26182  0.56542 0.4301418     C
C      0.26182  0.93462 0.9301418     C
O     0.2634416 0.6660814 0.6121716     O
O     0.2634416 0.8339214 0.1121716     O
Zn    0.263852 0.008512 0.558042    Zn
Zn    0.263852 0.491492 0.058042    Zn
C     0.2668817 0.5285317 0.2852417     C
C     0.2668817 0.9714717 0.7852417     C
O     0.2676917 0.0206517 0.4572314     O
O     0.2676917 0.4793517 0.9572314     O
C     0.2689118 0.0941718 0.3700818     C
C     0.2689118 0.4058318 0.8700818     C
O     0.2767714 0.7189616 0.4474914     O
O     0.2767714 0.7810416 0.9474914     O
O     0.2772712 0.6312912 0.3346912     O
O     0.2772712 0.8687112 0.8346912     O
C     0.2789918 0.7444717 0.9949518     C
C     0.2789918 0.7555317 0.4949518     C
O     0.2810416 0.5525114 0.7232314     O
O     0.2810416 0.9474914 0.2232314     O
C     0.2826118 0.1524917  0.57722     C
C     0.2826118 0.3475117  0.07722     C
O     0.2831313 0.5145814 0.1716413     O
O     0.2831313 0.9854214 0.6716413     O
C     0.2840317 0.1959817 0.0918317     C
C     0.2840317 0.3040217 0.5918317     C
C     0.2852417 0.2331217 0.0285317     C
C     0.2852417 0.2668817 0.5285317     C
H       0.2913   0.0013   0.8123     H
H       0.2913   0.4987   0.3123     H
C     0.2942417 0.0453418 0.3217717     C
C     0.2942417 0.4546618 0.8217717     C
C     0.2950117 0.1247017 0.0826117     C
C     0.2950117 0.3753017 0.5826117     C
H       0.2973   0.6131   0.2425     H
H       0.2973   0.8869   0.7425     H
O     0.3040116 0.0980614  0.56802     O
O     0.3040116 0.4019414  0.06802     O
C     0.3040217 0.5918317 0.2840317     C
C     0.3040217 0.9081717 0.7840317     C
H       0.3043   0.1224   0.3831     H
H       0.3043   0.3776   0.8831     H
H       0.3109   0.0073   0.3441     H
H       0.3109   0.4927   0.8441     H
H       0.3123   0.2087   0.9987     H
H       0.3123   0.2913   0.4987     H
O     0.3128616 0.5894016 0.4491314     O
O     0.3128616 0.9106016 0.9491314     O
C     0.3217717 0.2057617 0.5453418     C
C     0.3217717 0.2942417 0.0453418     C
O     0.3233013 0.5323413 0.5805113     O
O     0.3233013 0.9676613 0.0805113     O
Zn    0.327762 0.597972 0.647692    Zn
Zn    0.327762 0.902032 0.147692    Zn
O     0.3283613 0.7168713 0.0145814     O
O     0.3283613 0.7831313 0.5145814     O
O     0.3339214 0.1121716 0.2365616     O
O     0.3339214 0.3878316 0.7365616     O
O     0.3346912 0.2227312 0.1312912     O
O     0.3346912 0.2772712 0.6312912     O
O     0.3356818 0.5943617 0.9370816     O
O     0.3356818 0.9056417 0.4370816     O
O     0.3438814 0.0991213 0.1045816     O
O     0.3438814 0.4008813 0.6045816     O
H       0.3441   0.1891   0.5073     H
H       0.3441   0.3109   0.0073     H
Zn    0.345932 0.620582 0.036352    Zn
Zn    0.345932 0.879422 0.536352    Zn
C     0.3475117  0.07722 0.2826118     C
C     0.3475117  0.42282 0.7826118     C
Zn    0.352312 0.672242 0.402032    Zn
Zn    0.352312 0.827762 0.902032    Zn
O     0.3537412 0.5260512 0.0602712     O
O     0.3537412 0.9739512 0.5602712     O
H       0.3594   0.5144   0.5613     H
H       0.3594   0.9856   0.0613     H
O     0.3660212 0.6339812 0.1339812     O
O     0.3660212 0.8660212 0.6339812     O
O     0.3687112 0.6653112 0.7227312     O
O     0.3687112 0.8346912 0.2227312     O
C     0.3700818 0.2310918 0.5941718     C
C     0.3700818 0.2689118 0.0941718     C
C     0.3753017 0.5826117 0.2950117     C
C     0.3753017 0.9173917 0.7950117     C
H       0.3776   0.6169   0.8043     H
H       0.3776   0.8831   0.3043     H
Zn    0.379422 0.536352 0.154072    Zn
Zn    0.379422 0.963652 0.654072    Zn
H       0.3831   0.1957   0.6224     H
H       0.3831   0.3043   0.1224     H
H       0.3846   0.5018   0.0342     H
H       0.3846   0.9982   0.5342     H
H       0.3869   0.7425   0.2027     H
H       0.3869   0.7575   0.7027     H
O     0.3878316 0.7365616 0.3339214     O
O     0.3878316 0.7634416 0.8339214     O
O     0.3954216 0.6561214 0.5991213     O
O     0.3954216 0.8438814 0.0991213     O
O     0.4008813 0.6045816 0.3438814     O
O     0.4008813 0.8954216 0.8438814     O
O     0.4019414  0.06802 0.3040116     O
O     0.4019414  0.43202 0.8040116     O
Zn    0.402032 0.147692 0.172242    Zn
Zn    0.402032 0.352312 0.672242    Zn
O     0.4044112 0.5510413 0.2526313     O
O     0.4044112 0.9489613 0.7526313     O
O     0.4056417 0.0629216 0.6643218     O
O     0.4056417 0.4370816 0.1643218     O
C     0.4058318 0.6299218 0.7689118     C
C     0.4058318 0.8700818 0.2689118     C
C     0.4081717 0.7159717 0.6959817     C
C     0.4081717 0.7840317 0.1959817     C
O     0.4106016 0.5508714 0.6871416     O
O     0.4106016 0.9491314 0.1871416     O
C     0.4173917 0.7049917 0.6247017     C
C     0.4173917 0.7950117 0.1247017     C
O     0.4194913 0.6767013 0.4676613     O
O     0.4194913 0.8233013 0.9676613     O
C      0.42282 0.7173918 0.8475117     C
C      0.42282 0.7826118 0.3475117     C
C     0.4301418  0.23822  0.06542     C
C     0.4301418  0.26182  0.56542     C
O      0.43202 0.6959916 0.9019414     O
O      0.43202 0.8040116 0.4019414     O
C      0.43462 0.5698618  0.73822     C
C      0.43462 0.9301418  0.23822     C
O     0.4370816 0.1643218 0.4056417     O
O     0.4370816 0.3356818 0.9056417     O
H       0.4387   0.6406   0.4856     H
H       0.4387   0.8594   0.9856     H
O     0.4397312 0.6462612 0.0260512     O
O     0.4397312 0.8537412 0.5260512     O
Zn    0.441962 0.736152 0.991492    Zn
Zn    0.441962 0.763852 0.491492    Zn
O     0.4474914 0.2232314 0.2189616     O
O     0.4474914 0.2767714 0.7189616     O
O     0.4489613 0.7473713 0.5955912     O
O     0.4489613 0.7526313 0.0955912     O
O     0.4491314 0.1871416 0.0894016     O
O     0.4491314 0.3128616 0.5894016     O
C     0.4546618 0.6782317 0.7942417     C
C     0.4546618 0.8217717 0.2942417     C
O     0.4572314 0.2323117 0.5206517     O
O     0.4572314 0.2676917 0.0206517     O
Zn    0.463652 0.654072 0.120582    Zn
Zn    0.463652 0.845932 0.620582    Zn
H       0.4658   0.6154   0.0018     H
H       0.4658   0.8846   0.5018     H
O     0.4676613 0.0805113 0.1767013     O
O     0.4676613 0.4194913 0.6767013     O
C     0.4714717 0.7147617 0.7331217     C
C     0.4714717 0.7852417 0.2331217     C
O     0.4739512 0.5602712 0.1462612     O
O     0.4739512 0.9397312 0.6462612     O
O     0.4793517 0.5427714 0.7676917     O
O     0.4793517 0.9572314 0.2676917     O
O     0.4854214 0.6716413 0.2168713     O
O     0.4854214 0.8283613 0.7168713     O
H       0.4856   0.0613   0.1406     H
H       0.4856   0.4387   0.6406     H
Zn    0.491492 0.058042 0.263852    Zn
Zn    0.491492 0.441962 0.763852    Zn
H       0.4927   0.6559   0.8109     H
H       0.4927   0.8441   0.3109     H
C     0.4949518 0.2210118 0.2555317     C
C     0.4949518 0.2789918 0.7555317     C
H       0.4982   0.5342   0.1154     H
H       0.4982   0.9658   0.6154     H
H       0.4987   0.1877   0.7913     H
H       0.4987   0.3123   0.2913     H
H       0.5013   0.6877   0.7087     H
H       0.5013   0.8123   0.2087     H
H       0.5018   0.0342   0.3846     H
H       0.5018   0.4658   0.8846     H
C     0.5050518 0.7210118 0.2444717     C
C     0.5050518 0.7789918 0.7444717     C
H       0.5073   0.1559   0.6891     H
H       0.5073   0.3441   0.1891     H
Zn    0.508512 0.558042 0.236152    Zn
Zn    0.508512 0.941962 0.736152    Zn
H       0.5144   0.5613   0.3594     H
H       0.5144   0.9387   0.8594     H
O     0.5145814 0.1716413 0.2831313     O
O     0.5145814 0.3283613 0.7831313     O
O     0.5206517 0.0427714 0.7323117     O
O     0.5206517 0.4572314 0.2323117     O
O     0.5260512 0.0602712 0.3537412     O
O     0.5260512 0.4397312 0.8537412     O
C     0.5285317 0.2147617 0.7668817     C
C     0.5285317 0.2852417 0.2668817     C
O     0.5323413 0.5805113 0.3233013     O
O     0.5323413 0.9194913 0.8233013     O
H       0.5342   0.1154   0.4982     H
H       0.5342   0.3846   0.9982     H
Zn    0.536352 0.154072 0.379422    Zn
Zn    0.536352 0.345932 0.879422    Zn
O     0.5427714 0.7323117 0.9793517     O
O     0.5427714 0.7676917 0.4793517     O
C     0.5453418 0.1782317 0.7057617     C
C     0.5453418 0.3217717 0.2057617     C
O     0.5508714 0.6871416 0.4106016     O
O     0.5508714 0.8128616 0.9106016     O
O     0.5510413 0.2473713 0.9044112     O
O     0.5510413 0.2526313 0.4044112     O
O     0.5525114 0.7232314 0.2810416     O
O     0.5525114 0.7767714 0.7810416     O
Zn    0.558042 0.236152 0.508512    Zn
Zn    0.558042 0.263852 0.008512    Zn
O     0.5602712 0.1462612 0.4739512     O
O     0.5602712 0.3537412 0.9739512     O
H       0.5613   0.1406   0.0144     H
H       0.5613   0.3594   0.5144     H
O     0.5629216 0.6643218 0.0943617     O
O     0.5629216 0.8356818 0.5943617     O
C      0.56542 0.0698618  0.76182     C
C      0.56542 0.4301418  0.26182     C
O      0.56802 0.1959916 0.5980614     O
O      0.56802 0.3040116 0.0980614     O
C     0.5698618  0.73822  0.43462     C
C     0.5698618  0.76182  0.93462     C
C      0.57722 0.2173918 0.6524917     C
C      0.57722 0.2826118 0.1524917     C
O     0.5805113 0.1767013 0.0323413     O
O     0.5805113 0.3233013 0.5323413     O
C     0.5826117 0.2049917 0.8753017     C
C     0.5826117 0.2950117 0.3753017     C
O     0.5894016 0.0508714 0.8128616     O
O     0.5894016 0.4491314 0.3128616     O
C     0.5918317 0.2159717 0.8040217     C
C     0.5918317 0.2840317 0.3040217     C
C     0.5941718 0.1299218 0.7310918     C
C     0.5941718 0.3700818 0.2310918     C
O     0.5943617 0.5629216 0.8356818     O
O     0.5943617 0.9370816 0.3356818     O
O     0.5955912 0.0510413 0.2473713     O
O     0.5955912 0.4489613 0.7473713     O
Zn    0.597972 0.647692 0.327762    Zn
Zn    0.597972 0.852312 0.827762    Zn
O     0.5980614  0.56802 0.1959916     O
O     0.5980614  0.93202 0.6959916     O
O     0.5991213 0.1045816 0.1561214     O
O     0.5991213 0.3954216 0.6561214     O
O     0.6045816 0.1561214 0.9008813     O
O     0.6045816 0.3438814 0.4008813     O
O     0.6121716 0.2365616 0.1660814     O
O     0.6121716 0.2634416 0.6660814     O
H       0.6131   0.2425   0.2973     H
H       0.6131   0.2575   0.7973     H
H       0.6154   0.0018   0.4658     H
H       0.6154   0.4982   0.9658     H
H       0.6169   0.6957   0.8776     H
H       0.6169   0.8043   0.3776     H
Zn    0.620582 0.036352 0.345932    Zn
Zn    0.620582 0.463652 0.845932    Zn
H       0.6224   0.1169   0.6957     H
H       0.6224   0.3831   0.1957     H
C     0.6247017 0.0826117 0.2049917     C
C     0.6247017 0.4173917 0.7049917     C
C     0.6299218 0.7310918 0.9058318     C
C     0.6299218 0.7689118 0.4058318     C
O     0.6312912 0.1653112 0.7772712     O
O     0.6312912 0.3346912 0.2772712     O
O     0.6339812 0.1339812 0.3660212     O
O     0.6339812 0.3660212 0.8660212     O
H       0.6406   0.0144   0.9387     H
H       0.6406   0.4856   0.4387     H
O     0.6462612 0.0260512 0.4397312     O
O     0.6462612 0.4739512 0.9397312     O
Zn    0.647692 0.172242 0.097972    Zn
Zn    0.647692 0.327762 0.597972    Zn
C     0.6524917  0.57722 0.2173918     C
C     0.6524917  0.92282 0.7173918     C
Zn    0.654072 0.120582 0.463652    Zn
Zn    0.654072 0.379422 0.963652    Zn
H       0.6559   0.6891   0.9927     H
H       0.6559   0.8109   0.4927     H
O     0.6561214 0.5991213 0.3954216     O
O     0.6561214 0.9008813 0.8954216     O
O     0.6643218 0.0943617 0.5629216     O
O     0.6643218 0.4056417 0.0629216     O
O     0.6653112 0.7227312 0.3687112     O
O     0.6653112 0.7772712 0.8687112     O
O     0.6660814 0.6121716 0.2634416     O
O     0.6660814 0.8878316 0.7634416     O
O     0.6716413 0.2168713 0.4854214     O
O     0.6716413 0.2831313 0.9854214     O
Zn    0.672242 0.097972 0.852312    Zn
Zn    0.672242 0.402032 0.352312    Zn
O     0.6767013 0.0323413 0.9194913     O
O     0.6767013 0.4676613 0.4194913     O
C     0.6782317 0.7057617 0.9546618     C
C     0.6782317 0.7942417 0.4546618     C
O     0.6871416 0.0894016 0.0508714     O
O     0.6871416 0.4106016 0.5508714     O
H       0.6877   0.7087   0.5013     H
H       0.6877   0.7913   0.0013     H
H       0.6891   0.5073   0.1559     H
H       0.6891   0.9927   0.6559     H
H       0.6957   0.6224   0.1169     H
H       0.6957   0.8776   0.6169     H
C     0.6959817 0.0918317 0.2159717     C
C     0.6959817 0.4081717 0.7159717     C
O     0.6959916 0.5980614  0.93202     O
O     0.6959916 0.9019414  0.43202     O
H       0.7027   0.1131   0.2575     H
H       0.7027   0.3869   0.7575     H
C     0.7049917 0.6247017 0.4173917     C
C     0.7049917 0.8753017 0.9173917     C
C     0.7057617 0.5453418 0.1782317     C
C     0.7057617 0.9546618 0.6782317     C
H       0.7087   0.5013   0.6877     H
H       0.7087   0.9987   0.1877     H
C     0.7147617 0.7331217 0.4714717     C
C     0.7147617 0.7668817 0.9714717     C
C     0.7159717 0.6959817 0.4081717     C
C     0.7159717 0.8040217 0.9081717     C
O     0.7168713 0.0145814 0.3283613     O
O     0.7168713 0.4854214 0.8283613     O
C     0.7173918 0.6524917  0.92282     C
C     0.7173918 0.8475117  0.42282     C
O     0.7189616 0.0525114 0.7767714     O
O     0.7189616 0.4474914 0.2767714     O
C     0.7210118 0.2444717 0.5050518     C
C     0.7210118 0.2555317 0.0050518     C
O     0.7227312 0.1312912 0.1653112     O
O     0.7227312 0.3687112 0.6653112     O
O     0.7232314 0.2189616 0.0525114     O
O     0.7232314 0.2810416 0.5525114     O
C     0.7310918 0.5941718 0.1299218     C
C     0.7310918 0.9058318 0.6299218     C
O     0.7323117 0.5206517 0.0427714     O
O     0.7323117 0.9793517 0.5427714     O
C     0.7331217 0.0285317 0.2147617     C
C     0.7331217 0.4714717 0.7147617     C
Zn    0.736152 0.508512 0.941962    Zn
Zn    0.736152 0.991492 0.441962    Zn
O     0.7365616 0.1660814 0.8878316     O
O     0.7365616 0.3339214 0.3878316     O
C      0.73822  0.06542 0.0698618     C
C      0.73822  0.43462 0.5698618     C
H       0.7425   0.2027   0.3869     H
H       0.7425   0.2973   0.8869     H
C     0.7444717 0.5050518 0.7789918     C
C     0.7444717 0.9949518 0.2789918     C
O     0.7473713 0.5955912 0.4489613     O
O     0.7473713 0.9044112 0.9489613     O
O     0.7526313 0.0955912 0.4489613     O
O     0.7526313 0.4044112 0.9489613     O
C     0.7555317 0.0050518 0.7789918     C
C     0.7555317 0.4949518 0.2789918     C
H       0.7575   0.7027   0.3869     H
H       0.7575   0.7973   0.8869     H
C      0.76182  0.56542 0.0698618     C
C      0.76182  0.93462 0.5698618     C
O     0.7634416 0.6660814 0.8878316     O
O     0.7634416 0.8339214 0.3878316     O
Zn    0.763852 0.008512 0.941962    Zn
Zn    0.763852 0.491492 0.441962    Zn
C     0.7668817 0.5285317 0.2147617     C
C     0.7668817 0.9714717 0.7147617     C
O     0.7676917 0.0206517 0.0427714     O
O     0.7676917 0.4793517 0.5427714     O
C     0.7689118 0.0941718 0.1299218     C
C     0.7689118 0.4058318 0.6299218     C
O     0.7767714 0.7189616 0.0525114     O
O     0.7767714 0.7810416 0.5525114     O
O     0.7772712 0.6312912 0.1653112     O
O     0.7772712 0.8687112 0.6653112     O
C     0.7789918 0.7444717 0.5050518     C
C     0.7789918 0.7555317 0.0050518     C
O     0.7810416 0.5525114 0.7767714     O
O     0.7810416 0.9474914 0.2767714     O
C     0.7826118 0.1524917  0.92282     C
C     0.7826118 0.3475117  0.42282     C
O     0.7831313 0.5145814 0.3283613     O
O     0.7831313 0.9854214 0.8283613     O
C     0.7840317 0.1959817 0.4081717     C
C     0.7840317 0.3040217 0.9081717     C
C     0.7852417 0.2331217 0.4714717     C
C     0.7852417 0.2668817 0.9714717     C
H       0.7913   0.0013   0.6877     H
H       0.7913   0.4987   0.1877     H
C     0.7942417 0.0453418 0.1782317     C
C     0.7942417 0.4546618 0.6782317     C
C     0.7950117 0.1247017 0.4173917     C
C     0.7950117 0.3753017 0.9173917     C
H       0.7973   0.6131   0.2575     H
H       0.7973   0.8869   0.7575     H
O     0.8040116 0.0980614  0.93202     O
O     0.8040116 0.4019414  0.43202     O
C     0.8040217 0.5918317 0.2159717     C
C     0.8040217 0.9081717 0.7159717     C
H       0.8043   0.1224   0.1169     H
H       0.8043   0.3776   0.6169     H
H       0.8109   0.0073   0.1559     H
H       0.8109   0.4927   0.6559     H
H       0.8123   0.2087   0.5013     H
H       0.8123   0.2913   0.0013     H
O     0.8128616 0.5894016 0.0508714     O
O     0.8128616 0.9106016 0.5508714     O
C     0.8217717 0.2057617 0.9546618     C
C     0.8217717 0.2942417 0.4546618     C
O     0.8233013 0.5323413 0.9194913     O
O     0.8233013 0.9676613 0.4194913     O
Zn    0.827762 0.597972 0.852312    Zn
Zn    0.827762 0.902032 0.352312    Zn
O     0.8283613 0.7168713 0.4854214     O
O     0.8283613 0.7831313 0.9854214     O
O     0.8339214 0.1121716 0.2634416     O
O     0.8339214 0.3878316 0.7634416     O
O     0.8346912 0.2227312 0.3687112     O
O     0.8346912 0.2772712 0.8687112     O
O     0.8356818 0.5943617 0.5629216     O
O     0.8356818 0.9056417 0.0629216     O
O     0.8438814 0.0991213 0.3954216     O
O     0.8438814 0.4008813 0.8954216     O
H       0.8441   0.1891   0.9927     H
H       0.8441   0.3109   0.4927     H
Zn    0.845932 0.620582 0.463652    Zn
Zn    0.845932 0.879422 0.963652    Zn
C     0.8475117  0.07722 0.2173918     C
C     0.8475117  0.42282 0.7173918     C
Zn    0.852312 0.672242 0.097972    Zn
Zn    0.852312 0.827762 0.597972    Zn
O     0.8537412 0.5260512 0.4397312     O
O     0.8537412 0.9739512 0.9397312     O
H       0.8594   0.5144   0.9387     H
H       0.8594   0.9856   0.4387     H
O     0.8660212 0.6339812 0.3660212     O
O     0.8660212 0.8660212 0.8660212     O
O     0.8687112 0.6653112 0.7772712     O
O     0.8687112 0.8346912 0.2772712     O
C     0.8700818 0.2310918 0.9058318     C
C     0.8700818 0.2689118 0.4058318     C
C     0.8753017 0.5826117 0.2049917     C
C     0.8753017 0.9173917 0.7049917     C
H       0.8776   0.6169   0.6957     H
H       0.8776   0.8831   0.1957     H
Zn    0.879422 0.536352 0.345932    Zn
Zn    0.879422 0.963652 0.845932    Zn
H       0.8831   0.1957   0.8776     H
H       0.8831   0.3043   0.3776     H
H       0.8846   0.5018   0.4658     H
H       0.8846   0.9982   0.9658     H
H       0.8869   0.7425   0.2973     H
H       0.8869   0.7575   0.7973     H
O     0.8878316 0.7365616 0.1660814     O
O     0.8878316 0.7634416 0.6660814     O
O     0.8954216 0.6561214 0.9008813     O
O     0.8954216 0.8438814 0.4008813     O
O     0.9008813 0.6045816 0.1561214     O
O     0.9008813 0.8954216 0.6561214     O
O     0.9019414  0.06802 0.1959916     O
O     0.9019414  0.43202 0.6959916     O
Zn    0.902032 0.147692 0.327762    Zn
Zn    0.902032 0.352312 0.827762    Zn
O     0.9044112 0.5510413 0.2473713     O
O     0.9044112 0.9489613 0.7473713     O
O     0.9056417 0.0629216 0.8356818     O
O     0.9056417 0.4370816 0.3356818     O
C     0.9058318 0.6299218 0.7310918     C
C     0.9058318 0.8700818 0.2310918     C
C     0.9081717 0.7159717 0.8040217     C
C     0.9081717 0.7840317 0.3040217     C
O     0.9106016 0.5508714 0.8128616     O
O     0.9106016 0.9491314 0.3128616     O
C     0.9173917 0.7049917 0.8753017     C
C     0.9173917 0.7950117 0.3753017     C
O     0.9194913 0.6767013 0.0323413     O
O     0.9194913 0.8233013 0.5323413     O
C      0.92282 0.7173918 0.6524917     C
C      0.92282 0.7826118 0.1524917     C
C     0.9301418  0.23822  0.43462     C
C     0.9301418  0.26182  0.93462     C
O      0.93202 0.6959916 0.5980614     O
O      0.93202 0.8040116 0.0980614     O
C      0.93462 0.5698618  0.76182     C
C      0.93462 0.9301418  0.26182     C
O     0.9370816 0.1643218 0.0943617     O
O     0.9370816 0.3356818 0.5943617     O
H       0.9387   0.6406   0.0144     H
H       0.9387   0.8594   0.5144     H
O     0.9397312 0.6462612 0.4739512     O
O     0.9397312 0.8537412 0.9739512     O
Zn    0.941962 0.736152 0.508512    Zn
Zn    0.941962 0.763852 0.008512    Zn
O     0.9474914 0.2232314 0.2810416     O
O     0.9474914 0.2767714 0.7810416     O
O     0.9489613 0.7473713 0.9044112     O
O     0.9489613 0.7526313 0.4044112     O
O     0.9491314 0.1871416 0.4106016     O
O     0.9491314 0.3128616 0.9106016     O
C     0.9546618 0.6782317 0.7057617     C
C     0.9546618 0.8217717 0.2057617     C
O     0.9572314 0.2323117 0.9793517     O
O     0.9572314 0.2676917 0.4793517     O
Zn    0.963652 0.654072 0.379422    Zn
Zn    0.963652 0.845932 0.879422    Zn
H       0.9658   0.6154   0.4982     H
H       0.9658   0.8846   0.9982     H
O     0.9676613 0.0805113 0.3233013     O
O     0.9676613 0.4194913 0.8233013     O
C     0.9714717 0.7147617 0.7668817     C
C     0.9714717 0.7852417 0.2668817     C
O     0.9739512 0.5602712 0.3537412     O
O     0.9739512 0.9397312 0.8537412     O
O     0.9793517 0.5427714 0.7323117     O
O     0.9793517 0.9572314 0.2323117     O
O     0.9854214 0.6716413 0.2831313     O
O     0.9854214 0.8283613 0.7831313     O
H       0.9856   0.0613   0.3594     H
H       0.9856   0.4387   0.8594     H
Zn    0.991492 0.058042 0.236152    Zn
Zn    0.991492 0.441962 0.736152    Zn
H       0.9927   0.6559   0.6891     H
H       0.9927   0.8441   0.1891     H
C     0.9949518 0.2210118 0.2444717     C
C     0.9949518 0.2789918 0.7444717     C
H       0.9982   0.5342   0.3846     H
H       0.9982   0.9658   0.8846     H
H       0.9987   0.1877   0.7087     H
H       0.9987   0.3123   0.2087     H
