data_I
_chemical_name_common  '/home/zhangsd/repos/MofS-CGCNN/ML/data/WS24/clean_cifs/Zn3_BTP_2'
_cell_length_a 15.55501
_cell_length_b 15.55501
_cell_length_c 20.03042
_cell_angle_alpha 90.00000
_cell_angle_beta  90.00000
_cell_angle_gamma 90.00000
_space_group_name_H-M_alt      'P 1'


loop_
_space_group_symop_operation_xyz
  'x, y, z' 

loop_
_atom_site_label
_atom_site_fract_x
_atom_site_fract_y
_atom_site_fract_z
_atom_site_type_symbol
C     0.003773 0.596148 0.641461     C
C     0.003773 0.903852 0.141461     C
C     0.005321 0.740129 0.425171     C
C     0.005321 0.759871 0.925171     C
N     0.007314 0.068987 0.922499     N
N     0.007314 0.431013 0.422499     N
C      0.00996 0.119381 0.712953     C
C      0.00996 0.380619 0.212953     C
C     0.018676 0.128139 0.644225     C
C     0.018676 0.371861 0.144225     C
H     0.030597 0.653609 0.763575     H
H     0.030597 0.846391 0.263575     H
C     0.034136 0.689515 0.891644     C
C     0.034136 0.810485 0.391643     C
H     0.043201 0.638872 0.655992     H
H     0.043201 0.861128 0.155992     H
C     0.051409 0.051495 0.819031     C
C     0.051495 0.448591 0.319031     C
H     0.052943 0.222567 0.070797     H
H     0.052943 0.277433 0.570797     H
C     0.060544 0.060587 0.747337     C
C     0.060587 0.439456 0.247337     C
N     0.068987 0.007314 0.922499     N
N     0.068987 0.492686 0.422499     N
N     0.074557 0.699328 0.451913     N
N     0.074557 0.800672 0.951913     N
C     0.078017 0.421941 0.109881     C
C     0.078059 0.078017 0.609881     C
Zn     0.08313  0.58313      0.5    Zn
Zn     0.08313  0.91693      0.0    Zn
H     0.083973 0.415956 0.062908     H
H     0.084044 0.083973 0.562908     H
C     0.096148 0.503773 0.358539     C
C     0.096148 0.996227 0.858539     C
C     0.119381  0.00996 0.712953     C
C     0.119381  0.49004 0.212953     C
C     0.121182 0.686834 0.897664     C
C     0.121182 0.813166 0.397664     C
C     0.128139 0.018676 0.644225     C
C     0.128139 0.481324 0.144225     C
H     0.138872 0.543201 0.344008     H
H     0.138872 0.956799 0.844008     H
H     0.144419 0.658061 0.120891     H
H     0.144419 0.841939 0.620891     H
N     0.146164 0.744468 0.434913     N
N     0.146164 0.755532 0.934913     N
H     0.153609 0.530597 0.236425     H
H     0.153609 0.969403 0.736425     H
H     0.158061 0.644419 0.879109     H
H     0.158061 0.855581 0.379109     H
C     0.186834 0.621182 0.102335     C
C     0.186834 0.878818 0.602336     C
C     0.189515 0.534136 0.108356     C
C     0.189515 0.965864 0.608356     C
N     0.199328 0.574557 0.548087     N
N     0.199328 0.925443 0.048087     N
H     0.222567 0.052943 0.070797     H
H     0.222567 0.447057 0.570797     H
C     0.240129 0.505321 0.574829     C
C     0.240129 0.994679 0.074829     C
N     0.244468 0.646164 0.565087     N
N     0.244468 0.853836 0.065087     N
Zn        0.25     0.75      0.0    Zn
Zn        0.25     0.75      0.5    Zn
N     0.255532 0.646164 0.065087     N
N     0.255532 0.853836 0.565087     N
C     0.259871 0.505321 0.074829     C
C     0.259871 0.994679 0.574829     C
H     0.277433 0.052943 0.570797     H
H     0.277433 0.447057 0.070797     H
N     0.300672 0.574557 0.048087     N
N     0.300672 0.925443 0.548087     N
C     0.310485 0.534136 0.608356     C
C     0.310485 0.965864 0.108356     C
C     0.313166 0.621182 0.602336     C
C     0.313166 0.878818 0.102335     C
H     0.341939 0.644419 0.379109     H
H     0.341939 0.855581 0.879109     H
H     0.346391 0.530597 0.736425     H
H     0.346391 0.969403 0.236425     H
N     0.353836 0.744468 0.934913     N
N     0.353836 0.755532 0.434913     N
H     0.355581 0.658061 0.620891     H
H     0.355581 0.841939 0.120891     H
H     0.361128 0.543201 0.844008     H
H     0.361128 0.956799 0.344008     H
C     0.371861 0.018676 0.144225     C
C     0.371861 0.481324 0.644225     C
C     0.378818 0.686834 0.397664     C
C     0.378818 0.813166 0.897664     C
C     0.380619  0.00996 0.212953     C
C     0.380619  0.49004 0.712953     C
C     0.403852 0.503773 0.858539     C
C     0.403852 0.996227 0.358539     C
H     0.415956 0.416027 0.562908     H
H     0.416027 0.084044 0.062908     H
Zn     0.41693  0.58313      0.0    Zn
Zn     0.41693  0.91693      0.5    Zn
C     0.421941 0.421983 0.609881     C
C     0.421983 0.078059 0.109881     C
N     0.425443 0.699328 0.951913     N
N     0.425443 0.800672 0.451913     N
N     0.431013 0.007314 0.422499     N
N     0.431013 0.492686 0.922499     N
C     0.439413 0.060544 0.247337     C
C     0.439456 0.439413 0.747337     C
H     0.447057 0.222567 0.570797     H
H     0.447057 0.277433 0.070797     H
C     0.448505 0.051409 0.319031     C
C     0.448591 0.448505 0.819031     C
H     0.456799 0.638872 0.155992     H
H     0.456799 0.861128 0.655992     H
C     0.465864 0.689515 0.391643     C
C     0.465864 0.810485 0.891644     C
H     0.469403 0.653609 0.263575     H
H     0.469403 0.846391 0.763575     H
C     0.481324 0.128139 0.144225     C
C     0.481324 0.371861 0.644225     C
C      0.49004 0.119381 0.212953     C
C      0.49004 0.380619 0.712953     C
N     0.492686 0.068987 0.422499     N
N     0.492686 0.431013 0.922499     N
C     0.494679 0.740129 0.925171     C
C     0.494679 0.759871 0.425171     C
C     0.496227 0.596148 0.141461     C
C     0.496227 0.903852 0.641461     C
C     0.503773 0.096148 0.358539     C
C     0.503773 0.403852 0.858539     C
C     0.505321 0.240129 0.574829     C
C     0.505321 0.259871 0.074829     C
N     0.507314 0.568987 0.077501     N
N     0.507314 0.931013 0.577501     N
C      0.50996 0.619381 0.287047     C
C      0.50996 0.880619 0.787047     C
C     0.518676 0.628139 0.355775     C
C     0.518676 0.871861 0.855775     C
H     0.530597 0.153609 0.236425     H
H     0.530597 0.346391 0.736425     H
C     0.534136 0.189515 0.108356     C
C     0.534136 0.310485 0.608356     C
H     0.543201 0.138872 0.344008     H
H     0.543201 0.361128 0.844008     H
C     0.551409 0.551495 0.180969     C
C     0.551495 0.948591 0.680969     C
H     0.552943 0.722567 0.929203     H
H     0.552943 0.777433 0.429203     H
C     0.560544 0.560587 0.252663     C
C     0.560587 0.939456 0.752663     C
N     0.568987 0.507314 0.077501     N
N     0.568987 0.992686 0.577501     N
N     0.574557 0.199328 0.548087     N
N     0.574557 0.300672 0.048087     N
C     0.578017 0.921941 0.890119     C
C     0.578059 0.578017 0.390119     C
Zn     0.58313  0.08313      0.5    Zn
Zn     0.58313  0.41693      0.0    Zn
H     0.583973 0.915956 0.937092     H
H     0.584044 0.583973 0.437092     H
C     0.596148 0.003773 0.641461     C
C     0.596148 0.496227 0.141461     C
C     0.619381  0.50996 0.287047     C
C     0.619381  0.99004 0.787047     C
C     0.621182 0.186834 0.102335     C
C     0.621182 0.313166 0.602336     C
C     0.628139 0.518676 0.355775     C
C     0.628139 0.981324 0.855775     C
H     0.638872 0.043201 0.655992     H
H     0.638872 0.456799 0.155992     H
H     0.644419 0.158061 0.879109     H
H     0.644419 0.341939 0.379109     H
N     0.646164 0.244468 0.565087     N
N     0.646164 0.255532 0.065087     N
H     0.653609 0.030597 0.763575     H
H     0.653609 0.469403 0.263575     H
H     0.658061 0.144419 0.120891     H
H     0.658061 0.355581 0.620891     H
C     0.686834 0.121182 0.897664     C
C     0.686834 0.378818 0.397664     C
C     0.689515 0.034136 0.891644     C
C     0.689515 0.465864 0.391643     C
N     0.699328 0.074557 0.451913     N
N     0.699328 0.425443 0.951913     N
H     0.722567 0.552943 0.929203     H
H     0.722567 0.947057 0.429203     H
C     0.740129 0.005321 0.425171     C
C     0.740129 0.494679 0.925171     C
N     0.744468 0.146164 0.434913     N
N     0.744468 0.353836 0.934913     N
Zn        0.75     0.25      0.0    Zn
Zn        0.75     0.25      0.5    Zn
N     0.755532 0.146164 0.934913     N
N     0.755532 0.353836 0.434913     N
C     0.759871 0.005321 0.925171     C
C     0.759871 0.494679 0.425171     C
H     0.777433 0.552943 0.429203     H
H     0.777433 0.947057 0.929203     H
N     0.800672 0.074557 0.951913     N
N     0.800672 0.425443 0.451913     N
C     0.810485 0.034136 0.391643     C
C     0.810485 0.465864 0.891644     C
C     0.813166 0.121182 0.397664     C
C     0.813166 0.378818 0.897664     C
H     0.841939 0.144419 0.620891     H
H     0.841939 0.355581 0.120891     H
H     0.846391 0.030597 0.263575     H
H     0.846391 0.469403 0.763575     H
N     0.853836 0.244468 0.065087     N
N     0.853836 0.255532 0.565087     N
H     0.855581 0.158061 0.379109     H
H     0.855581 0.341939 0.879109     H
H     0.861128 0.043201 0.155992     H
H     0.861128 0.456799 0.655992     H
C     0.871861 0.518676 0.855775     C
C     0.871861 0.981324 0.355775     C
C     0.878818 0.186834 0.602336     C
C     0.878818 0.313166 0.102335     C
C     0.880619  0.50996 0.787047     C
C     0.880619  0.99004 0.287047     C
C     0.903852 0.003773 0.141461     C
C     0.903852 0.496227 0.641461     C
H     0.915956 0.916027 0.437092     H
H     0.916027 0.584044 0.937092     H
Zn     0.91693  0.08313      0.0    Zn
Zn     0.91693  0.41693      0.5    Zn
C     0.921941 0.921983 0.390119     C
C     0.921983 0.578059 0.890119     C
N     0.925443 0.199328 0.048087     N
N     0.925443 0.300672 0.548087     N
N     0.931013 0.507314 0.577501     N
N     0.931013 0.992686 0.077501     N
C     0.939413 0.560544 0.752663     C
C     0.939456 0.939413 0.252663     C
H     0.947057 0.722567 0.429203     H
H     0.947057 0.777433 0.929203     H
C     0.948505 0.551409 0.680969     C
C     0.948591 0.948505 0.180969     C
H     0.956799 0.138872 0.844008     H
H     0.956799 0.361128 0.344008     H
C     0.965864 0.189515 0.608356     C
C     0.965864 0.310485 0.108356     C
H     0.969403 0.153609 0.736425     H
H     0.969403 0.346391 0.236425     H
C     0.981324 0.628139 0.855775     C
C     0.981324 0.871861 0.355775     C
C      0.99004 0.619381 0.787047     C
C      0.99004 0.880619 0.287047     C
N     0.992686 0.568987 0.577501     N
N     0.992686 0.931013 0.077501     N
C     0.994679 0.240129 0.074829     C
C     0.994679 0.259871 0.574829     C
C     0.996227 0.096148 0.858539     C
C     0.996227 0.403852 0.358539     C
