data_I
_chemical_name_common  '/home/zhangsd/repos/MofS-CGCNN/ML/data/WS24/clean_cifs/Zn6_IDC_4_OH_2_HPRZ_2'
_cell_length_a 11.69030
_cell_length_b 17.99840
_cell_length_c 14.17330
_cell_angle_alpha 90.00000
_cell_angle_beta  111.01350
_cell_angle_gamma 90.00000
_space_group_name_H-M_alt      'P 1'


loop_
_space_group_symop_operation_xyz
  'x, y, z' 

loop_
_atom_site_label
_atom_site_fract_x
_atom_site_fract_y
_atom_site_fract_z
_atom_site_type_symbol
C      0.00307  0.68434  0.42177     C
H       0.0088   0.5756   0.4246     H
H        0.021   0.6888   0.2003     H
O      0.02344  0.18624  0.84664     O
N      0.02495  0.94024  0.87874     N
C      0.03825  0.34144  0.30975     C
N      0.04575  0.75854  0.78194     N
C      0.04658  0.30567  0.69148     C
O      0.04864  0.44914  0.40074     O
N      0.05155  0.94694  0.13074     N
N      0.05247  0.68524  0.26817     N
H        0.056   0.5739   0.2653     H
C      0.05747  0.28534  0.24905     C
H       0.0605    0.724   0.4523     H
C      0.06295  0.05894  0.86535     C
Zn    0.063417 0.833424 0.886666    Zn
H       0.0639   0.3119   0.5533     H
N      0.06575  0.61144  0.45314     N
C      0.06997  0.01864  0.12285     C
N      0.07425  0.66824  0.68535     N
H        0.082   0.2564    0.708     H
H       0.0875   0.7549    0.016     H
C      0.10257  0.13624  0.85565     C
C      0.10477  0.40844  0.36095     C
H       0.1077   0.7218   0.2918     H
H       0.1105   0.3419    0.722     H
C      0.11087  0.98824  0.87125     C
C      0.11347  0.61355  0.29657     C
C      0.12007  0.72844  0.73937     C
Zn    0.128157 0.594194 0.605886    Zn
O      0.12914  0.20884  0.15014     O
O      0.13244  0.79354  0.02224     O
H       0.1417   0.0381   0.1187     H
Zn    0.150947 0.855144 0.138756    Zn
C      0.15437  0.26134  0.21095     C
C      0.16077  0.60414  0.40825     C
H       0.1808   0.6102    0.272     H
O      0.19084  0.49284  0.64324     O
H       0.1965   0.7478   0.7469     H
H       0.1983   0.5555   0.4248     H
O      0.20744  0.42344  0.35694     O
O      0.20804  0.15054  0.85834     O
H       0.2238    0.641   0.4382     H
C      0.22417  0.95384  0.86495     C
O      0.22734  0.88534  0.86854     O
O      0.24094  0.79354  0.25924     O
O      0.25914  0.29354  0.24084     O
O      0.27274  0.38534  0.63154     O
C      0.27597  0.45384  0.63515     C
H       0.2762    0.141   0.0618     H
O      0.29204  0.65054  0.64174     O
O      0.29264  0.92344  0.14314     O
H       0.3017   0.0555   0.0752     H
H       0.3035   0.2478   0.7531     H
O      0.30924  0.99284  0.85684     O
H       0.3192   0.1102    0.228     H
C      0.33937  0.10414  0.09185     C
C      0.34577  0.76134  0.28915     C
Zn    0.349067 0.355144 0.361256    Zn
H       0.3583   0.5381   0.3813     H
O      0.36764  0.29354  0.47784     O
O      0.37094  0.70884  0.34994     O
Zn    0.371857 0.094194 0.894126    Zn
C      0.38007  0.22844  0.76077     C
C      0.38667  0.11355  0.20357     C
C      0.38927  0.48824  0.62885     C
H       0.3895   0.8419    0.778     H
H       0.3923   0.2218   0.2082     H
C      0.39537  0.90844  0.13915     C
C      0.39757  0.63624  0.64445     C
H       0.4125   0.2549    0.484     H
H        0.418   0.7564    0.792     H
N      0.42585  0.16824  0.81475     N
C      0.43017  0.51864  0.37725     C
N      0.43435  0.11144  0.04694     N
H       0.4361   0.8119   0.9467     H
Zn    0.436597 0.333424 0.613346    Zn
C      0.43715  0.55894  0.63475     C
H       0.4395    0.224   0.0477     H
C      0.44267  0.78534  0.25105     C
H        0.444   0.0739   0.2347     H
N      0.44767  0.18524  0.23197     N
N      0.44855  0.44694  0.36934     N
O      0.45144  0.94914  0.09934     O
C      0.45358  0.80567  0.80868     C
N      0.45435  0.25854  0.71814     N
C      0.46185  0.84144  0.19035     C
N      0.47515  0.44024  0.62134     N
O      0.47664  0.68624  0.65344     O
H        0.479   0.1888   0.2997     H
H       0.4912   0.0756   0.0754     H
C      0.49707  0.18434  0.07837     C
C      0.50307  0.81574  0.92177     C
H       0.5088   0.9244   0.9246     H
H        0.521   0.8112   0.7003     H
O      0.52344  0.31384  0.34664     O
N      0.52495  0.55984  0.37874     N
C      0.53825  0.15864  0.80975     C
N      0.54575  0.74154  0.28194     N
C      0.54658  0.19447  0.19148     C
O      0.54864  0.05094  0.90074     O
N      0.55155  0.55314  0.63074     N
N      0.55247  0.81484  0.76817     N
H        0.556   0.9261   0.7653     H
C      0.55747  0.21474  0.74905     C
H       0.5605    0.776   0.9523     H
C      0.56295  0.44114  0.36535     C
Zn    0.563417 0.666584 0.386666    Zn
H       0.5639   0.1881   0.0533     H
N      0.56575  0.88864  0.95314     N
C      0.56997  0.48144  0.62285     C
N      0.57425  0.83184  0.18535     N
H        0.582   0.2436    0.208     H
H       0.5875   0.7451    0.516     H
C      0.60257  0.36384  0.35565     C
C      0.60477  0.09164  0.86095     C
H       0.6077   0.7782   0.7918     H
H       0.6105   0.1581    0.222     H
C      0.61087  0.51184  0.37125     C
C      0.61347  0.88655  0.79657     C
C      0.62007  0.77164  0.23937     C
Zn    0.628157 0.905814 0.105886    Zn
O      0.62914  0.29124  0.65014     O
O      0.63244  0.70654  0.52224     O
H       0.6417   0.4619   0.6187     H
Zn    0.650947 0.644864 0.638756    Zn
C      0.65437  0.23874  0.71095     C
C      0.66077  0.89594  0.90825     C
H       0.6808   0.8898    0.772     H
O      0.69084  0.00724  0.14324     O
H       0.6965   0.7522   0.2469     H
H       0.6983   0.9445   0.9248     H
O      0.70744  0.07664  0.85694     O
O      0.70804  0.34954  0.35834     O
H       0.7238    0.859   0.9382     H
C      0.72417  0.54624  0.36495     C
O      0.72734  0.61474  0.36854     O
O      0.74094  0.70654  0.75924     O
O      0.75914  0.20654  0.74084     O
O      0.77274  0.11474  0.13154     O
C      0.77597  0.04624  0.13515     C
H       0.7762    0.359   0.5618     H
O      0.79204  0.84954  0.14174     O
O      0.79264  0.57664  0.64314     O
H       0.8017   0.4445   0.5752     H
H       0.8035   0.2522   0.2531     H
O      0.80924  0.50724  0.35684     O
H       0.8192   0.3898    0.728     H
C      0.83937  0.39594  0.59185     C
C      0.84577  0.73874  0.78915     C
Zn    0.849067 0.144864 0.861256    Zn
H       0.8583   0.9619   0.8813     H
O      0.86764  0.20654  0.97784     O
O      0.87094  0.79124  0.84994     O
Zn    0.871857 0.405814 0.394126    Zn
C      0.88007  0.27164  0.26077     C
C      0.88667  0.38655  0.70357     C
C      0.88927  0.01184  0.12885     C
H       0.8895   0.6581    0.278     H
H       0.8923   0.2782   0.7082     H
C      0.89537  0.59164  0.63915     C
C      0.89757  0.86384  0.14445     C
H       0.9125   0.2451    0.984     H
H        0.918   0.7436    0.292     H
N      0.92585  0.33184  0.31475     N
C      0.93017  0.98144  0.87725     C
N      0.93435  0.38864  0.54694     N
H       0.9361   0.6881   0.4467     H
Zn    0.936597 0.166584 0.113346    Zn
C      0.93715  0.94114  0.13475     C
H       0.9395    0.276   0.5477     H
C      0.94267  0.71474  0.75105     C
H        0.944   0.4261   0.7347     H
N      0.94767  0.31484  0.73197     N
N      0.94855  0.05314  0.86934     N
O      0.95144  0.55094  0.59934     O
C      0.95358  0.69447  0.30868     C
N      0.95435  0.24154  0.21814     N
C      0.96185  0.65864  0.69035     C
N      0.97515  0.05984  0.12134     N
O      0.97664  0.81384  0.15344     O
H        0.979   0.3112   0.7997     H
H       0.9912   0.4244   0.5754     H
C      0.99707  0.31574  0.57837     C
