data_I
_chemical_name_common  '/home/zhangsd/repos/MofS-CGCNN/ML/data/WS24/clean_cifs/ZnPO3'
_cell_length_a 16.76798
_cell_length_b 16.76798
_cell_length_c  9.06558
_cell_angle_alpha 90.00000
_cell_angle_beta  90.00000
_cell_angle_gamma 90.00000
_space_group_name_H-M_alt      'P 1'


loop_
_space_group_symop_operation_xyz
  'x, y, z' 

loop_
_atom_site_label
_atom_site_fract_x
_atom_site_fract_y
_atom_site_fract_z
_atom_site_type_symbol
Zn         0.0      0.5 0.3989413    Zn
Zn         0.0      0.5 0.8989413    Zn
O      0.00695  0.21535  0.52659     O
O      0.00695  0.78475  0.02659     O
O      0.03174  0.41262  0.26854     O
O      0.03174  0.58742  0.76854     O
H       0.0393   0.0893   0.4716     H
H       0.0393   0.9113   0.9716     H
O      0.04325  0.21245  0.36988     O
O      0.04325  0.78765  0.86988     O
P     0.071689 0.160389 0.4962616     P
P     0.071689 0.839629 0.9962616     P
O      0.08284  0.45484  0.01605     O
O      0.08284  0.54524  0.51605     O
Zn    0.083253 0.213803 0.167348    Zn
Zn    0.083253 0.786203 0.667348    Zn
H       0.0893   0.0393   0.9716     H
H       0.0893   0.9613   0.4716     H
P     0.096819 0.405127  0.15372     P
P     0.096819 0.594887  0.65372     P
O      0.11704  0.32022  0.11665     O
O      0.11704  0.67982  0.61665     O
O      0.13335  0.15604  0.62708     O
O      0.13335  0.84404  0.12708     O
O      0.15604  0.13335  0.12708     O
O      0.15604  0.86675  0.62708     O
P     0.160389 0.071689 0.9962616     P
P     0.160389 0.928329 0.4962616     P
H       0.1632   0.4362   0.2005     H
H       0.1632   0.5642   0.7005     H
O      0.21245  0.04325  0.86988     O
O      0.21245  0.95685  0.36988     O
Zn    0.213803 0.083253 0.667348    Zn
Zn    0.213803 0.916753 0.167348    Zn
O      0.21535  0.00695  0.02659     O
O      0.21535  0.99315  0.52659     O
O      0.32022  0.11704  0.61665     O
O      0.32022  0.88304  0.11665     O
P     0.405127 0.096819  0.65372     P
P     0.405127 0.903199  0.15372     P
O      0.41262  0.03174  0.76854     O
O      0.41262  0.96834  0.26854     O
H       0.4362   0.1632   0.7005     H
H       0.4362   0.8372   0.2005     H
O      0.45484  0.08284  0.51605     O
O      0.45484  0.91724  0.01605     O
Zn         0.5      0.0 0.3989413    Zn
Zn         0.5      0.0 0.8989413    Zn
O      0.54524  0.08284  0.01605     O
O      0.54524  0.91724  0.51605     O
H       0.5642   0.1632   0.2005     H
H       0.5642   0.8372   0.7005     H
O      0.58742  0.03174  0.26854     O
O      0.58742  0.96834  0.76854     O
P     0.594887 0.096819  0.15372     P
P     0.594887 0.903199  0.65372     P
O      0.67982  0.11704  0.11665     O
O      0.67982  0.88304  0.61665     O
O      0.78475  0.00695  0.52659     O
O      0.78475  0.99315  0.02659     O
Zn    0.786203 0.083253 0.167348    Zn
Zn    0.786203 0.916753 0.667348    Zn
O      0.78765  0.04325  0.36988     O
O      0.78765  0.95685  0.86988     O
H       0.8372   0.4362   0.7005     H
H       0.8372   0.5642   0.2005     H
P     0.839629 0.071689 0.4962616     P
P     0.839629 0.928329 0.9962616     P
O      0.84404  0.13335  0.62708     O
O      0.84404  0.86675  0.12708     O
O      0.86675  0.15604  0.12708     O
O      0.86675  0.84404  0.62708     O
O      0.88304  0.32022  0.61665     O
O      0.88304  0.67982  0.11665     O
P     0.903199 0.405127  0.65372     P
P     0.903199 0.594887  0.15372     P
H       0.9113   0.0393   0.4716     H
H       0.9113   0.9613   0.9716     H
Zn    0.916753 0.213803 0.667348    Zn
Zn    0.916753 0.786203 0.167348    Zn
O      0.91724  0.45484  0.51605     O
O      0.91724  0.54524  0.01605     O
P     0.928329 0.160389 0.9962616     P
P     0.928329 0.839629 0.4962616     P
O      0.95685  0.21245  0.86988     O
O      0.95685  0.78765  0.36988     O
H       0.9613   0.0893   0.9716     H
H       0.9613   0.9113   0.4716     H
O      0.96834  0.41262  0.76854     O
O      0.96834  0.58742  0.26854     O
O      0.99315  0.21535  0.02659     O
O      0.99315  0.78475  0.52659     O
