data_I
_chemical_name_common  '/home/zhangsd/repos/MofS-CGCNN/ML/data/WS24/clean_cifs/ZOZHUT'
_cell_length_a 12.71519
_cell_length_b 12.71519
_cell_length_c 12.71519
_cell_angle_alpha 60.00000
_cell_angle_beta  60.00000
_cell_angle_gamma 60.00000
_space_group_name_H-M_alt      'P 1'


loop_
_space_group_symop_operation_xyz
  'x, y, z' 

loop_
_atom_site_label
_atom_site_fract_x
_atom_site_fract_y
_atom_site_fract_z
_atom_site_type_symbol
Co         0.0      0.0      0.0    Co
C       0.0903   0.2103   0.7897     C
C       0.0903   0.2103   0.9097     C
C       0.0903   0.7897   0.2103     C
C       0.0903   0.7897   0.9097     C
C       0.0903   0.9097   0.2103     C
C       0.0903   0.9097   0.7897     C
N       0.1042   0.1042   0.8958     N
N       0.1042   0.8958   0.1042     N
N       0.1042   0.8958   0.8958     N
C        0.163    0.285    0.715     C
C        0.163    0.285    0.837     C
C        0.163    0.715    0.285     C
C        0.163    0.715    0.837     C
C        0.163    0.837    0.285     C
C        0.163    0.837    0.715     C
C       0.2103   0.0903   0.7897     C
C       0.2103   0.0903   0.9097     C
C       0.2103   0.7897   0.0903     C
C       0.2103   0.7897   0.9097     C
C       0.2103   0.9097   0.0903     C
C       0.2103   0.9097   0.7897     C
C       0.2494   0.2494   0.7506     C
C       0.2494   0.7506   0.2494     C
C       0.2494   0.7506   0.7506     C
C        0.285    0.163    0.715     C
C        0.285    0.163    0.837     C
C        0.285    0.715    0.163     C
C        0.285    0.715    0.837     C
C        0.285    0.837    0.163     C
C        0.285    0.837    0.715     C
O       0.3069   0.4255   0.5745     O
O       0.3069   0.4255   0.6931     O
O       0.3069   0.5745   0.4255     O
O       0.3069   0.5745   0.6931     O
O       0.3069   0.6931   0.4255     O
O       0.3069   0.6931   0.5745     O
C        0.337    0.337    0.663     C
C        0.337    0.663    0.337     C
C        0.337    0.663    0.663     C
O       0.4255   0.3069   0.5745     O
O       0.4255   0.3069   0.6931     O
O       0.4255   0.5745   0.3069     O
O       0.4255   0.5745   0.6931     O
O       0.4255   0.6931   0.3069     O
O       0.4255   0.6931   0.5745     O
Pr         0.5      0.5      0.5    Pr
O       0.5745   0.3069   0.4255     O
O       0.5745   0.3069   0.6931     O
O       0.5745   0.4255   0.3069     O
O       0.5745   0.4255   0.6931     O
O       0.5745   0.6931   0.3069     O
O       0.5745   0.6931   0.4255     O
C        0.663    0.337    0.337     C
C        0.663    0.337    0.663     C
C        0.663    0.663    0.337     C
O       0.6931   0.3069   0.4255     O
O       0.6931   0.3069   0.5745     O
O       0.6931   0.4255   0.3069     O
O       0.6931   0.4255   0.5745     O
O       0.6931   0.5745   0.3069     O
O       0.6931   0.5745   0.4255     O
C        0.715    0.163    0.285     C
C        0.715    0.163    0.837     C
C        0.715    0.285    0.163     C
C        0.715    0.285    0.837     C
C        0.715    0.837    0.163     C
C        0.715    0.837    0.285     C
C       0.7506   0.2494   0.2494     C
C       0.7506   0.2494   0.7506     C
C       0.7506   0.7506   0.2494     C
C       0.7897   0.0903   0.2103     C
C       0.7897   0.0903   0.9097     C
C       0.7897   0.2103   0.0903     C
C       0.7897   0.2103   0.9097     C
C       0.7897   0.9097   0.0903     C
C       0.7897   0.9097   0.2103     C
C        0.837    0.163    0.285     C
C        0.837    0.163    0.715     C
C        0.837    0.285    0.163     C
C        0.837    0.285    0.715     C
C        0.837    0.715    0.163     C
C        0.837    0.715    0.285     C
N       0.8958   0.1042   0.1042     N
N       0.8958   0.1042   0.8958     N
N       0.8958   0.8958   0.1042     N
C       0.9097   0.0903   0.2103     C
C       0.9097   0.0903   0.7897     C
C       0.9097   0.2103   0.0903     C
C       0.9097   0.2103   0.7897     C
C       0.9097   0.7897   0.0903     C
C       0.9097   0.7897   0.2103     C
