data_I
_chemical_name_common  '/home/zhangsd/repos/MofS-CGCNN/ML/data/WS24/clean_cifs/ZOZJIJ'
_cell_length_a 12.66259
_cell_length_b 12.66259
_cell_length_c 12.66259
_cell_angle_alpha 60.00000
_cell_angle_beta  60.00000
_cell_angle_gamma 60.00000
_space_group_name_H-M_alt      'P 1'


loop_
_space_group_symop_operation_xyz
  'x, y, z' 

loop_
_atom_site_label
_atom_site_fract_x
_atom_site_fract_y
_atom_site_fract_z
_atom_site_type_symbol
Tb         0.0      0.0      0.0    Tb
O       0.0652   0.1792   0.8208     O
O       0.0652   0.1792   0.9348     O
O       0.0652   0.8208   0.1792     O
O       0.0652   0.8208   0.9348     O
O       0.0652   0.9348   0.1792     O
O       0.0652   0.9348   0.8208     O
C        0.155    0.155    0.845     C
C        0.155    0.845    0.155     C
C        0.155    0.845    0.845     C
O       0.1792   0.0652   0.8208     O
O       0.1792   0.0652   0.9348     O
O       0.1792   0.8208   0.0652     O
O       0.1792   0.8208   0.9348     O
O       0.1792   0.9348   0.0652     O
O       0.1792   0.9348   0.8208     O
C        0.212    0.344    0.656     C
C        0.212    0.344    0.788     C
C        0.212    0.656    0.344     C
C        0.212    0.656    0.788     C
C        0.212    0.788    0.344     C
C        0.212    0.788    0.656     C
C       0.2488   0.2488   0.7512     C
C       0.2488   0.7512   0.2488     C
C       0.2488   0.7512   0.7512     C
C        0.296    0.426    0.574     C
C        0.296    0.426    0.704     C
C        0.296    0.574    0.426     C
C        0.296    0.574    0.704     C
C        0.296    0.704    0.426     C
C        0.296    0.704    0.574     C
C        0.344    0.212    0.656     C
C        0.344    0.212    0.788     C
C        0.344    0.656    0.212     C
C        0.344    0.656    0.788     C
C        0.344    0.788    0.212     C
C        0.344    0.788    0.656     C
N       0.3945   0.3945   0.6055     N
N       0.3945   0.6055   0.3945     N
N       0.3945   0.6055   0.6055     N
C        0.426    0.296    0.574     C
C        0.426    0.296    0.704     C
C        0.426    0.574    0.296     C
C        0.426    0.574    0.704     C
C        0.426    0.704    0.296     C
C        0.426    0.704    0.574     C
Co         0.5      0.5      0.5    Co
C        0.574    0.296    0.426     C
C        0.574    0.296    0.704     C
C        0.574    0.426    0.296     C
C        0.574    0.426    0.704     C
C        0.574    0.704    0.296     C
C        0.574    0.704    0.426     C
N       0.6055   0.3945   0.3945     N
N       0.6055   0.3945   0.6055     N
N       0.6055   0.6055   0.3945     N
C        0.656    0.212    0.344     C
C        0.656    0.212    0.788     C
C        0.656    0.344    0.212     C
C        0.656    0.344    0.788     C
C        0.656    0.788    0.212     C
C        0.656    0.788    0.344     C
C        0.704    0.296    0.426     C
C        0.704    0.296    0.574     C
C        0.704    0.426    0.296     C
C        0.704    0.426    0.574     C
C        0.704    0.574    0.296     C
C        0.704    0.574    0.426     C
C       0.7512   0.2488   0.2488     C
C       0.7512   0.2488   0.7512     C
C       0.7512   0.7512   0.2488     C
C        0.788    0.212    0.344     C
C        0.788    0.212    0.656     C
C        0.788    0.344    0.212     C
C        0.788    0.344    0.656     C
C        0.788    0.656    0.212     C
C        0.788    0.656    0.344     C
O       0.8208   0.0652   0.1792     O
O       0.8208   0.0652   0.9348     O
O       0.8208   0.1792   0.0652     O
O       0.8208   0.1792   0.9348     O
O       0.8208   0.9348   0.0652     O
O       0.8208   0.9348   0.1792     O
C        0.845    0.155    0.155     C
C        0.845    0.155    0.845     C
C        0.845    0.845    0.155     C
O       0.9348   0.0652   0.1792     O
O       0.9348   0.0652   0.8208     O
O       0.9348   0.1792   0.0652     O
O       0.9348   0.1792   0.8208     O
O       0.9348   0.8208   0.0652     O
O       0.9348   0.8208   0.1792     O
