data_I
_chemical_name_common  '/home/zhangsd/repos/MofS-CGCNN/ML/data/WS24/clean_cifs/ZOZJEF'
_cell_length_a 12.73782
_cell_length_b 12.73782
_cell_length_c 12.73782
_cell_angle_alpha 60.00000
_cell_angle_beta  60.00000
_cell_angle_gamma 60.00000
_space_group_name_H-M_alt      'P 1'


loop_
_space_group_symop_operation_xyz
  'x, y, z' 

loop_
_atom_site_label
_atom_site_fract_x
_atom_site_fract_y
_atom_site_fract_z
_atom_site_type_symbol
Eu         0.0      0.0      0.0    Eu
O       0.0691   0.1835   0.8165     O
O       0.0691   0.1835   0.9309     O
O       0.0691   0.8165   0.1835     O
O       0.0691   0.8165   0.9309     O
O       0.0691   0.9309   0.1835     O
O       0.0691   0.9309   0.8165     O
C        0.158    0.158    0.842     C
C        0.158    0.842    0.158     C
C        0.158    0.842    0.842     C
O       0.1835   0.0691   0.8165     O
O       0.1835   0.0691   0.9309     O
O       0.1835   0.8165   0.0691     O
O       0.1835   0.8165   0.9309     O
O       0.1835   0.9309   0.0691     O
O       0.1835   0.9309   0.8165     O
C        0.213    0.339    0.661     C
C        0.213    0.339    0.787     C
C        0.213    0.661    0.339     C
C        0.213    0.661    0.787     C
C        0.213    0.787    0.339     C
C        0.213    0.787    0.661     C
C       0.2491   0.2491   0.7509     C
C       0.2491   0.7509   0.2491     C
C       0.2491   0.7509   0.7509     C
C        0.295    0.419    0.581     C
C        0.295    0.419    0.705     C
C        0.295    0.581    0.419     C
C        0.295    0.581    0.705     C
C        0.295    0.705    0.419     C
C        0.295    0.705    0.581     C
C        0.339    0.213    0.661     C
C        0.339    0.213    0.787     C
C        0.339    0.661    0.213     C
C        0.339    0.661    0.787     C
C        0.339    0.787    0.213     C
C        0.339    0.787    0.661     C
N       0.3946   0.3946   0.6054     N
N       0.3946   0.6054   0.3946     N
N       0.3946   0.6054   0.6054     N
C        0.419    0.295    0.581     C
C        0.419    0.295    0.705     C
C        0.419    0.581    0.295     C
C        0.419    0.581    0.705     C
C        0.419    0.705    0.295     C
C        0.419    0.705    0.581     C
Co         0.5      0.5      0.5    Co
C        0.581    0.295    0.419     C
C        0.581    0.295    0.705     C
C        0.581    0.419    0.295     C
C        0.581    0.419    0.705     C
C        0.581    0.705    0.295     C
C        0.581    0.705    0.419     C
N       0.6054   0.3946   0.3946     N
N       0.6054   0.3946   0.6054     N
N       0.6054   0.6054   0.3946     N
C        0.661    0.213    0.339     C
C        0.661    0.213    0.787     C
C        0.661    0.339    0.213     C
C        0.661    0.339    0.787     C
C        0.661    0.787    0.213     C
C        0.661    0.787    0.339     C
C        0.705    0.295    0.419     C
C        0.705    0.295    0.581     C
C        0.705    0.419    0.295     C
C        0.705    0.419    0.581     C
C        0.705    0.581    0.295     C
C        0.705    0.581    0.419     C
C       0.7509   0.2491   0.2491     C
C       0.7509   0.2491   0.7509     C
C       0.7509   0.7509   0.2491     C
C        0.787    0.213    0.339     C
C        0.787    0.213    0.661     C
C        0.787    0.339    0.213     C
C        0.787    0.339    0.661     C
C        0.787    0.661    0.213     C
C        0.787    0.661    0.339     C
O       0.8165   0.0691   0.1835     O
O       0.8165   0.0691   0.9309     O
O       0.8165   0.1835   0.0691     O
O       0.8165   0.1835   0.9309     O
O       0.8165   0.9309   0.0691     O
O       0.8165   0.9309   0.1835     O
C        0.842    0.158    0.158     C
C        0.842    0.158    0.842     C
C        0.842    0.842    0.158     C
O       0.9309   0.0691   0.1835     O
O       0.9309   0.0691   0.8165     O
O       0.9309   0.1835   0.0691     O
O       0.9309   0.1835   0.8165     O
O       0.9309   0.8165   0.0691     O
O       0.9309   0.8165   0.1835     O
