data_I
_chemical_name_common  '/home/zhangsd/repos/MofS-CGCNN/ML/data/WS24/clean_cifs/ZOZJOP'
_cell_length_a 12.60609
_cell_length_b 12.60609
_cell_length_c 12.60609
_cell_angle_alpha 60.00000
_cell_angle_beta  60.00000
_cell_angle_gamma 60.00000
_space_group_name_H-M_alt      'P 1'


loop_
_space_group_symop_operation_xyz
  'x, y, z' 

loop_
_atom_site_label
_atom_site_fract_x
_atom_site_fract_y
_atom_site_fract_z
_atom_site_type_symbol
Er         0.0      0.0      0.0    Er
O        0.063   0.1766   0.8234     O
O        0.063   0.1766    0.937     O
O        0.063   0.8234   0.1766     O
O        0.063   0.8234    0.937     O
O        0.063    0.937   0.1766     O
O        0.063    0.937   0.8234     O
C        0.153    0.153    0.847     C
C        0.153    0.847    0.153     C
C        0.153    0.847    0.847     C
O       0.1766    0.063   0.8234     O
O       0.1766    0.063    0.937     O
O       0.1766   0.8234    0.063     O
O       0.1766   0.8234    0.937     O
O       0.1766    0.937    0.063     O
O       0.1766    0.937   0.8234     O
C        0.207    0.345    0.655     C
C        0.207    0.345    0.793     C
C        0.207    0.655    0.345     C
C        0.207    0.655    0.793     C
C        0.207    0.793    0.345     C
C        0.207    0.793    0.655     C
C       0.2472   0.2472   0.7528     C
C       0.2472   0.7528   0.2472     C
C       0.2472   0.7528   0.7528     C
C        0.294    0.426    0.574     C
C        0.294    0.426    0.706     C
C        0.294    0.574    0.426     C
C        0.294    0.574    0.706     C
C        0.294    0.706    0.426     C
C        0.294    0.706    0.574     C
C        0.345    0.207    0.655     C
C        0.345    0.207    0.793     C
C        0.345    0.655    0.207     C
C        0.345    0.655    0.793     C
C        0.345    0.793    0.207     C
C        0.345    0.793    0.655     C
N       0.3943   0.3943   0.6057     N
N       0.3943   0.6057   0.3943     N
N       0.3943   0.6057   0.6057     N
C        0.426    0.294    0.574     C
C        0.426    0.294    0.706     C
C        0.426    0.574    0.294     C
C        0.426    0.574    0.706     C
C        0.426    0.706    0.294     C
C        0.426    0.706    0.574     C
Co         0.5      0.5      0.5    Co
C        0.574    0.294    0.426     C
C        0.574    0.294    0.706     C
C        0.574    0.426    0.294     C
C        0.574    0.426    0.706     C
C        0.574    0.706    0.294     C
C        0.574    0.706    0.426     C
N       0.6057   0.3943   0.3943     N
N       0.6057   0.3943   0.6057     N
N       0.6057   0.6057   0.3943     N
C        0.655    0.207    0.345     C
C        0.655    0.207    0.793     C
C        0.655    0.345    0.207     C
C        0.655    0.345    0.793     C
C        0.655    0.793    0.207     C
C        0.655    0.793    0.345     C
C        0.706    0.294    0.426     C
C        0.706    0.294    0.574     C
C        0.706    0.426    0.294     C
C        0.706    0.426    0.574     C
C        0.706    0.574    0.294     C
C        0.706    0.574    0.426     C
C       0.7528   0.2472   0.2472     C
C       0.7528   0.2472   0.7528     C
C       0.7528   0.7528   0.2472     C
C        0.793    0.207    0.345     C
C        0.793    0.207    0.655     C
C        0.793    0.345    0.207     C
C        0.793    0.345    0.655     C
C        0.793    0.655    0.207     C
C        0.793    0.655    0.345     C
O       0.8234    0.063   0.1766     O
O       0.8234    0.063    0.937     O
O       0.8234   0.1766    0.063     O
O       0.8234   0.1766    0.937     O
O       0.8234    0.937    0.063     O
O       0.8234    0.937   0.1766     O
C        0.847    0.153    0.153     C
C        0.847    0.153    0.847     C
C        0.847    0.847    0.153     C
O        0.937    0.063   0.1766     O
O        0.937    0.063   0.8234     O
O        0.937   0.1766    0.063     O
O        0.937   0.1766   0.8234     O
O        0.937   0.8234    0.063     O
O        0.937   0.8234   0.1766     O
