data_I
_chemical_name_common  '/home/zhangsd/repos/MofS-CGCNN/ML/data/WS24/clean_cifs/ZOZJAB'
_cell_length_a 12.74701
_cell_length_b 12.74701
_cell_length_c 12.74701
_cell_angle_alpha 60.00000
_cell_angle_beta  60.00000
_cell_angle_gamma 60.00000
_space_group_name_H-M_alt      'P 1'


loop_
_space_group_symop_operation_xyz
  'x, y, z' 

loop_
_atom_site_label
_atom_site_fract_x
_atom_site_fract_y
_atom_site_fract_z
_atom_site_type_symbol
Sm         0.0      0.0      0.0    Sm
O       0.0712   0.1848   0.8152     O
O       0.0712   0.1848   0.9288     O
O       0.0712   0.8152   0.1848     O
O       0.0712   0.8152   0.9288     O
O       0.0712   0.9288   0.1848     O
O       0.0712   0.9288   0.8152     O
C         0.16     0.16     0.84     C
C         0.16     0.84     0.16     C
C         0.16     0.84     0.84     C
O       0.1848   0.0712   0.8152     O
O       0.1848   0.0712   0.9288     O
O       0.1848   0.8152   0.0712     O
O       0.1848   0.8152   0.9288     O
O       0.1848   0.9288   0.0712     O
O       0.1848   0.9288   0.8152     O
C         0.21    0.334    0.666     C
C         0.21    0.334     0.79     C
C         0.21    0.666    0.334     C
C         0.21    0.666     0.79     C
C         0.21     0.79    0.334     C
C         0.21     0.79    0.666     C
C       0.2498   0.2498   0.7502     C
C       0.2498   0.7502   0.2498     C
C       0.2498   0.7502   0.7502     C
C       0.2931   0.4171   0.5829     C
C       0.2931   0.4171   0.7069     C
C       0.2931   0.5829   0.4171     C
C       0.2931   0.5829   0.7069     C
C       0.2931   0.7069   0.4171     C
C       0.2931   0.7069   0.5829     C
C        0.334     0.21    0.666     C
C        0.334     0.21     0.79     C
C        0.334    0.666     0.21     C
C        0.334    0.666     0.79     C
C        0.334     0.79     0.21     C
C        0.334     0.79    0.666     C
N       0.3948   0.3948   0.6052     N
N       0.3948   0.6052   0.3948     N
N       0.3948   0.6052   0.6052     N
C       0.4171   0.2931   0.5829     C
C       0.4171   0.2931   0.7069     C
C       0.4171   0.5829   0.2931     C
C       0.4171   0.5829   0.7069     C
C       0.4171   0.7069   0.2931     C
C       0.4171   0.7069   0.5829     C
Co         0.5      0.5      0.5    Co
C       0.5829   0.2931   0.4171     C
C       0.5829   0.2931   0.7069     C
C       0.5829   0.4171   0.2931     C
C       0.5829   0.4171   0.7069     C
C       0.5829   0.7069   0.2931     C
C       0.5829   0.7069   0.4171     C
N       0.6052   0.3948   0.3948     N
N       0.6052   0.3948   0.6052     N
N       0.6052   0.6052   0.3948     N
C        0.666     0.21    0.334     C
C        0.666     0.21     0.79     C
C        0.666    0.334     0.21     C
C        0.666    0.334     0.79     C
C        0.666     0.79     0.21     C
C        0.666     0.79    0.334     C
C       0.7069   0.2931   0.4171     C
C       0.7069   0.2931   0.5829     C
C       0.7069   0.4171   0.2931     C
C       0.7069   0.4171   0.5829     C
C       0.7069   0.5829   0.2931     C
C       0.7069   0.5829   0.4171     C
C       0.7502   0.2498   0.2498     C
C       0.7502   0.2498   0.7502     C
C       0.7502   0.7502   0.2498     C
C         0.79     0.21    0.334     C
C         0.79     0.21    0.666     C
C         0.79    0.334     0.21     C
C         0.79    0.334    0.666     C
C         0.79    0.666     0.21     C
C         0.79    0.666    0.334     C
O       0.8152   0.0712   0.1848     O
O       0.8152   0.0712   0.9288     O
O       0.8152   0.1848   0.0712     O
O       0.8152   0.1848   0.9288     O
O       0.8152   0.9288   0.0712     O
O       0.8152   0.9288   0.1848     O
C         0.84     0.16     0.16     C
C         0.84     0.16     0.84     C
C         0.84     0.84     0.16     C
O       0.9288   0.0712   0.1848     O
O       0.9288   0.0712   0.8152     O
O       0.9288   0.1848   0.0712     O
O       0.9288   0.1848   0.8152     O
O       0.9288   0.8152   0.0712     O
O       0.9288   0.8152   0.1848     O
