data_I
_chemical_name_common  '/home/zhangsd/repos/MofS-CGCNN/ML/data/WS24/clean_cifs/Zr6O6_ABDC-Cl2_12'
_cell_length_a 29.93300
_cell_length_b 29.93300
_cell_length_c 29.93300
_cell_angle_alpha 90.00000
_cell_angle_beta  90.00000
_cell_angle_gamma 90.00000
_space_group_name_H-M_alt      'P 1'


loop_
_space_group_symop_operation_xyz
  'x, y, z' 

loop_
_atom_site_label
_atom_site_fract_x
_atom_site_fract_y
_atom_site_fract_z
_atom_site_type_symbol
Zr         0.0      0.0   0.0844    Zr
Zr         0.0      0.0   0.9156    Zr
Zr         0.0   0.0844      0.0    Zr
Zr         0.0   0.4156      0.5    Zr
Zr         0.0      0.5   0.4156    Zr
Zr         0.0      0.5   0.5844    Zr
Zr         0.0   0.5844      0.5    Zr
Zr         0.0   0.9156      0.0    Zr
Cl      0.0017  0.08295  0.78545    Cl
Cl      0.0017  0.41705  0.71455    Cl
Cl      0.0017  0.58295  0.28545    Cl
Cl      0.0017  0.91705  0.21455    Cl
O      0.00195   0.1192  0.06695     O
O      0.00195   0.3808  0.43305     O
O      0.00195   0.6192  0.56695     O
O      0.00195   0.8808  0.93305     O
O      0.00215   0.0657  0.11975     O
O      0.00215   0.4343  0.38025     O
O      0.00215   0.5657  0.61975     O
O      0.00215   0.9343  0.88025     O
C      0.00345  0.10615   0.1073     C
C      0.00345  0.39385   0.3927     C
C      0.00345  0.60615   0.6073     C
C      0.00345  0.89385   0.8927     C
H       0.0042  0.16625  0.25415     H
H       0.0042  0.33375  0.24585     H
H       0.0042  0.66625  0.75415     H
H       0.0042  0.83375  0.74585     H
C       0.0043   0.1355   0.1891     C
C       0.0043   0.3645   0.3109     C
C       0.0043   0.6355   0.6891     C
C       0.0043   0.8645   0.8109     C
C      0.00625   0.1715  0.21845     C
C      0.00625   0.3285  0.28155     C
C      0.00625   0.6715  0.71845     C
C      0.00625   0.8285  0.78155     C
C      0.00637  0.14222  0.14232     C
C      0.00637  0.35778  0.35768     C
C      0.00637  0.64222  0.64232     C
C      0.00637  0.85778  0.85768     C
C      0.01047  0.21513  0.20197     C
C      0.01047  0.28487  0.29803     C
C      0.01047  0.71513  0.70197     C
C      0.01047  0.78487  0.79803     C
C        0.011  0.18635  0.12685     C
C        0.011  0.31365  0.37315     C
C        0.011  0.68635  0.62685     C
C        0.011  0.81365  0.87315     C
N      0.01142  0.24617  0.27068     N
N      0.01142  0.25383  0.22932     N
N      0.01142  0.74617  0.77068     N
N      0.01142  0.75383  0.72932     N
H      0.01277  0.19138  0.09102     H
H      0.01277  0.30862  0.40898     H
H      0.01277  0.69138  0.59102     H
H      0.01277  0.80862  0.90898     H
C      0.01298  0.22243  0.15588     C
C      0.01298  0.27757  0.34412     C
C      0.01298  0.72243  0.65588     C
C      0.01298  0.77757  0.84412     C
H      0.01625   0.2436  0.35635     H
H      0.01625   0.2564  0.14365     H
H      0.01625   0.7436  0.85635     H
H      0.01625   0.7564  0.64365     H
O      0.03463  0.03463  0.03463     O
O      0.03463  0.46537  0.46537     O
O      0.03463  0.53463  0.53463     O
O      0.03463  0.96537  0.96537     O
O      0.04718  0.04718  0.95282     O
O      0.04718  0.45282  0.54718     O
O      0.04718  0.54718  0.45282     O
O      0.04718  0.95282  0.04718     O
O       0.0657  0.11975  0.00215     O
O       0.0657  0.38025  0.49785     O
O       0.0657  0.61975  0.50215     O
O       0.0657  0.88025  0.99785     O
H      0.06572  0.06572  0.93428     H
H      0.06572  0.43428  0.56572     H
H      0.06572  0.56572  0.43428     H
H      0.06572  0.93428  0.06572     H
O      0.06695  0.00195   0.1192     O
O      0.06695  0.49805   0.3808     O
O      0.06695  0.50195   0.6192     O
O      0.06695  0.99805   0.8808     O
Cl     0.08295  0.21455   0.9983    Cl
Cl     0.08295  0.28545   0.5017    Cl
Cl     0.08295  0.71455   0.4983    Cl
Cl     0.08295  0.78545   0.0017    Cl
Zr      0.0844      0.0      0.0    Zr
Zr      0.0844      0.5      0.5    Zr
H      0.09102  0.01277  0.19138     H
H      0.09102  0.48723  0.30862     H
H      0.09102  0.51277  0.69138     H
H      0.09102  0.98723  0.80862     H
C      0.10615   0.1073  0.00345     C
C      0.10615   0.3927  0.49655     C
C      0.10615   0.6073  0.50345     C
C      0.10615   0.8927  0.99655     C
C       0.1073  0.00345  0.10615     C
C       0.1073  0.49655  0.39385     C
C       0.1073  0.50345  0.60615     C
C       0.1073  0.99655  0.89385     C
O       0.1192  0.06695  0.00195     O
O       0.1192  0.43305  0.49805     O
O       0.1192  0.56695  0.50195     O
O       0.1192  0.93305  0.99805     O
O      0.11975  0.00215   0.0657     O
O      0.11975  0.49785   0.4343     O
O      0.11975  0.50215   0.5657     O
O      0.11975  0.99785   0.9343     O
C      0.12685    0.011  0.18635     C
C      0.12685    0.489  0.31365     C
C      0.12685    0.511  0.68635     C
C      0.12685    0.989  0.81365     C
C       0.1355   0.1891   0.0043     C
C       0.1355   0.3109   0.4957     C
C       0.1355   0.6891   0.5043     C
C       0.1355   0.8109   0.9957     C
C      0.14222  0.14232  0.00637     C
C      0.14222  0.35768  0.49363     C
C      0.14222  0.64232  0.50637     C
C      0.14222  0.85768  0.99363     C
C      0.14232  0.00637  0.14222     C
C      0.14232  0.49363  0.35778     C
C      0.14232  0.50637  0.64222     C
C      0.14232  0.99363  0.85778     C
H      0.14365  0.01625   0.2564     H
H      0.14365  0.48375   0.2436     H
H      0.14365  0.51625   0.7564     H
H      0.14365  0.98375   0.7436     H
C      0.15588  0.01298  0.22243     C
C      0.15588  0.48702  0.27757     C
C      0.15588  0.51298  0.72243     C
C      0.15588  0.98702  0.77757     C
H      0.16625  0.24585   0.4958     H
H      0.16625  0.25415   0.0042     H
H      0.16625  0.74585   0.9958     H
H      0.16625  0.75415   0.5042     H
C       0.1715  0.21845  0.00625     C
C       0.1715  0.28155  0.49375     C
C       0.1715  0.71845  0.50625     C
C       0.1715  0.78155  0.99375     C
C      0.18635  0.12685    0.011     C
C      0.18635  0.37315    0.489     C
C      0.18635  0.62685    0.511     C
C      0.18635  0.87315    0.989     C
C       0.1891   0.0043   0.1355     C
C       0.1891   0.4957   0.3645     C
C       0.1891   0.5043   0.6355     C
C       0.1891   0.9957   0.8645     C
H      0.19138  0.09102  0.01277     H
H      0.19138  0.40898  0.48723     H
H      0.19138  0.59102  0.51277     H
H      0.19138  0.90898  0.98723     H
C      0.20197  0.01047  0.21513     C
C      0.20197  0.48953  0.28487     C
C      0.20197  0.51047  0.71513     C
C      0.20197  0.98953  0.78487     C
Cl     0.21455   0.0017  0.91705    Cl
Cl     0.21455   0.4983  0.58295    Cl
Cl     0.21455   0.5017  0.41705    Cl
Cl     0.21455   0.9983  0.08295    Cl
C      0.21513  0.20197  0.01047     C
C      0.21513  0.29803  0.48953     C
C      0.21513  0.70197  0.51047     C
C      0.21513  0.79803  0.98953     C
C      0.21845  0.00625   0.1715     C
C      0.21845  0.49375   0.3285     C
C      0.21845  0.50625   0.6715     C
C      0.21845  0.99375   0.8285     C
C      0.22243  0.15588  0.01298     C
C      0.22243  0.34412  0.48702     C
C      0.22243  0.65588  0.51298     C
C      0.22243  0.84412  0.98702     C
N      0.22932  0.01142  0.25383     N
N      0.22932  0.48858  0.24617     N
N      0.22932  0.51142  0.75383     N
N      0.22932  0.98858  0.74617     N
H       0.2436  0.14365  0.48375     H
H       0.2436  0.35635  0.01625     H
H       0.2436  0.64365  0.98375     H
H       0.2436  0.85635  0.51625     H
H      0.24585   0.0042  0.33375     H
H      0.24585   0.4958  0.16625     H
H      0.24585   0.5042  0.83375     H
H      0.24585   0.9958  0.66625     H
N      0.24617  0.22932  0.48858     N
N      0.24617  0.27068  0.01142     N
N      0.24617  0.72932  0.98858     N
N      0.24617  0.77068  0.51142     N
N      0.25383  0.22932  0.01142     N
N      0.25383  0.27068  0.48858     N
N      0.25383  0.72932  0.51142     N
N      0.25383  0.77068  0.98858     N
H      0.25415   0.0042  0.16625     H
H      0.25415   0.4958  0.33375     H
H      0.25415   0.5042  0.66625     H
H      0.25415   0.9958  0.83375     H
H       0.2564  0.14365  0.01625     H
H       0.2564  0.35635  0.48375     H
H       0.2564  0.64365  0.51625     H
H       0.2564  0.85635  0.98375     H
N      0.27068  0.01142  0.24617     N
N      0.27068  0.48858  0.25383     N
N      0.27068  0.51142  0.74617     N
N      0.27068  0.98858  0.75383     N
C      0.27757  0.15588  0.48702     C
C      0.27757  0.34412  0.01298     C
C      0.27757  0.65588  0.98702     C
C      0.27757  0.84412  0.51298     C
C      0.28155  0.00625   0.3285     C
C      0.28155  0.49375   0.1715     C
C      0.28155  0.50625   0.8285     C
C      0.28155  0.99375   0.6715     C
C      0.28487  0.20197  0.48953     C
C      0.28487  0.29803  0.01047     C
C      0.28487  0.70197  0.98953     C
C      0.28487  0.79803  0.51047     C
Cl     0.28545   0.0017  0.58295    Cl
Cl     0.28545   0.4983  0.91705    Cl
Cl     0.28545   0.5017  0.08295    Cl
Cl     0.28545   0.9983  0.41705    Cl
C      0.29803  0.01047  0.28487     C
C      0.29803  0.48953  0.21513     C
C      0.29803  0.51047  0.78487     C
C      0.29803  0.98953  0.71513     C
H      0.30862  0.09102  0.48723     H
H      0.30862  0.40898  0.01277     H
H      0.30862  0.59102  0.98723     H
H      0.30862  0.90898  0.51277     H
C       0.3109   0.0043   0.3645     C
C       0.3109   0.4957   0.1355     C
C       0.3109   0.5043   0.8645     C
C       0.3109   0.9957   0.6355     C
C      0.31365  0.12685    0.489     C
C      0.31365  0.37315    0.011     C
C      0.31365  0.62685    0.989     C
C      0.31365  0.87315    0.511     C
C       0.3285  0.21845  0.49375     C
C       0.3285  0.28155  0.00625     C
C       0.3285  0.71845  0.99375     C
C       0.3285  0.78155  0.50625     C
H      0.33375  0.24585   0.0042     H
H      0.33375  0.25415   0.4958     H
H      0.33375  0.74585   0.5042     H
H      0.33375  0.75415   0.9958     H
C      0.34412  0.01298  0.27757     C
C      0.34412  0.48702  0.22243     C
C      0.34412  0.51298  0.77757     C
C      0.34412  0.98702  0.72243     C
H      0.35635  0.01625   0.2436     H
H      0.35635  0.48375   0.2564     H
H      0.35635  0.51625   0.7436     H
H      0.35635  0.98375   0.7564     H
C      0.35768  0.00637  0.35778     C
C      0.35768  0.49363  0.14222     C
C      0.35768  0.50637  0.85778     C
C      0.35768  0.99363  0.64222     C
C      0.35778  0.14232  0.49363     C
C      0.35778  0.35768  0.00637     C
C      0.35778  0.64232  0.99363     C
C      0.35778  0.85768  0.50637     C
C       0.3645   0.1891   0.4957     C
C       0.3645   0.3109   0.0043     C
C       0.3645   0.6891   0.9957     C
C       0.3645   0.8109   0.5043     C
C      0.37315    0.011  0.31365     C
C      0.37315    0.489  0.18635     C
C      0.37315    0.511  0.81365     C
C      0.37315    0.989  0.68635     C
O      0.38025  0.00215   0.4343     O
O      0.38025  0.49785   0.0657     O
O      0.38025  0.50215   0.9343     O
O      0.38025  0.99785   0.5657     O
O       0.3808  0.06695  0.49805     O
O       0.3808  0.43305  0.00195     O
O       0.3808  0.56695  0.99805     O
O       0.3808  0.93305  0.50195     O
C       0.3927  0.00345  0.39385     C
C       0.3927  0.49655  0.10615     C
C       0.3927  0.50345  0.89385     C
C       0.3927  0.99655  0.60615     C
C      0.39385   0.1073  0.49655     C
C      0.39385   0.3927  0.00345     C
C      0.39385   0.6073  0.99655     C
C      0.39385   0.8927  0.50345     C
H      0.40898  0.01277  0.30862     H
H      0.40898  0.48723  0.19138     H
H      0.40898  0.51277  0.80862     H
H      0.40898  0.98723  0.69138     H
Zr      0.4156      0.0      0.5    Zr
Zr      0.4156      0.5      0.0    Zr
Cl     0.41705  0.21455   0.5017    Cl
Cl     0.41705  0.28545   0.9983    Cl
Cl     0.41705  0.71455   0.0017    Cl
Cl     0.41705  0.78545   0.4983    Cl
O      0.43305  0.00195   0.3808     O
O      0.43305  0.49805   0.1192     O
O      0.43305  0.50195   0.8808     O
O      0.43305  0.99805   0.6192     O
H      0.43428  0.06572  0.56572     H
H      0.43428  0.43428  0.93428     H
H      0.43428  0.56572  0.06572     H
H      0.43428  0.93428  0.43428     H
O       0.4343  0.11975  0.49785     O
O       0.4343  0.38025  0.00215     O
O       0.4343  0.61975  0.99785     O
O       0.4343  0.88025  0.50215     O
O      0.45282  0.04718  0.54718     O
O      0.45282  0.45282  0.95282     O
O      0.45282  0.54718  0.04718     O
O      0.45282  0.95282  0.45282     O
O      0.46537  0.03463  0.46537     O
O      0.46537  0.46537  0.03463     O
O      0.46537  0.53463  0.96537     O
O      0.46537  0.96537  0.53463     O
H      0.48375   0.2436  0.14365     H
H      0.48375   0.2564  0.35635     H
H      0.48375   0.7436  0.64365     H
H      0.48375   0.7564  0.85635     H
C      0.48702  0.22243  0.34412     C
C      0.48702  0.27757  0.15588     C
C      0.48702  0.72243  0.84412     C
C      0.48702  0.77757  0.65588     C
H      0.48723  0.19138  0.40898     H
H      0.48723  0.30862  0.09102     H
H      0.48723  0.69138  0.90898     H
H      0.48723  0.80862  0.59102     H
N      0.48858  0.24617  0.22932     N
N      0.48858  0.25383  0.27068     N
N      0.48858  0.74617  0.72932     N
N      0.48858  0.75383  0.77068     N
C        0.489  0.18635  0.37315     C
C        0.489  0.31365  0.12685     C
C        0.489  0.68635  0.87315     C
C        0.489  0.81365  0.62685     C
C      0.48953  0.21513  0.29803     C
C      0.48953  0.28487  0.20197     C
C      0.48953  0.71513  0.79803     C
C      0.48953  0.78487  0.70197     C
C      0.49363  0.14222  0.35768     C
C      0.49363  0.35778  0.14232     C
C      0.49363  0.64222  0.85768     C
C      0.49363  0.85778  0.64232     C
C      0.49375   0.1715  0.28155     C
C      0.49375   0.3285  0.21845     C
C      0.49375   0.6715  0.78155     C
C      0.49375   0.8285  0.71845     C
C       0.4957   0.1355   0.3109     C
C       0.4957   0.3645   0.1891     C
C       0.4957   0.6355   0.8109     C
C       0.4957   0.8645   0.6891     C
H       0.4958  0.16625  0.24585     H
H       0.4958  0.33375  0.25415     H
H       0.4958  0.66625  0.74585     H
H       0.4958  0.83375  0.75415     H
C      0.49655  0.10615   0.3927     C
C      0.49655  0.39385   0.1073     C
C      0.49655  0.60615   0.8927     C
C      0.49655  0.89385   0.6073     C
O      0.49785   0.0657  0.38025     O
O      0.49785   0.4343  0.11975     O
O      0.49785   0.5657  0.88025     O
O      0.49785   0.9343  0.61975     O
O      0.49805   0.1192  0.43305     O
O      0.49805   0.3808  0.06695     O
O      0.49805   0.6192  0.93305     O
O      0.49805   0.8808  0.56695     O
Cl      0.4983  0.08295  0.71455    Cl
Cl      0.4983  0.41705  0.78545    Cl
Cl      0.4983  0.58295  0.21455    Cl
Cl      0.4983  0.91705  0.28545    Cl
Zr         0.5      0.0   0.4156    Zr
Zr         0.5      0.0   0.5844    Zr
Zr         0.5   0.0844      0.5    Zr
Zr         0.5   0.4156      0.0    Zr
Zr         0.5      0.5   0.0844    Zr
Zr         0.5      0.5   0.9156    Zr
Zr         0.5   0.5844      0.0    Zr
Zr         0.5   0.9156      0.5    Zr
Cl      0.5017  0.08295  0.28545    Cl
Cl      0.5017  0.41705  0.21455    Cl
Cl      0.5017  0.58295  0.78545    Cl
Cl      0.5017  0.91705  0.71455    Cl
O      0.50195   0.1192  0.56695     O
O      0.50195   0.3808  0.93305     O
O      0.50195   0.6192  0.06695     O
O      0.50195   0.8808  0.43305     O
O      0.50215   0.0657  0.61975     O
O      0.50215   0.4343  0.88025     O
O      0.50215   0.5657  0.11975     O
O      0.50215   0.9343  0.38025     O
C      0.50345  0.10615   0.6073     C
C      0.50345  0.39385   0.8927     C
C      0.50345  0.60615   0.1073     C
C      0.50345  0.89385   0.3927     C
H       0.5042  0.16625  0.75415     H
H       0.5042  0.33375  0.74585     H
H       0.5042  0.66625  0.25415     H
H       0.5042  0.83375  0.24585     H
C       0.5043   0.1355   0.6891     C
C       0.5043   0.3645   0.8109     C
C       0.5043   0.6355   0.1891     C
C       0.5043   0.8645   0.3109     C
C      0.50625   0.1715  0.71845     C
C      0.50625   0.3285  0.78155     C
C      0.50625   0.6715  0.21845     C
C      0.50625   0.8285  0.28155     C
C      0.50637  0.14222  0.64232     C
C      0.50637  0.35778  0.85768     C
C      0.50637  0.64222  0.14232     C
C      0.50637  0.85778  0.35768     C
C      0.51047  0.21513  0.70197     C
C      0.51047  0.28487  0.79803     C
C      0.51047  0.71513  0.20197     C
C      0.51047  0.78487  0.29803     C
C        0.511  0.18635  0.62685     C
C        0.511  0.31365  0.87315     C
C        0.511  0.68635  0.12685     C
C        0.511  0.81365  0.37315     C
N      0.51142  0.24617  0.77068     N
N      0.51142  0.25383  0.72932     N
N      0.51142  0.74617  0.27068     N
N      0.51142  0.75383  0.22932     N
H      0.51277  0.19138  0.59102     H
H      0.51277  0.30862  0.90898     H
H      0.51277  0.69138  0.09102     H
H      0.51277  0.80862  0.40898     H
C      0.51298  0.22243  0.65588     C
C      0.51298  0.27757  0.84412     C
C      0.51298  0.72243  0.15588     C
C      0.51298  0.77757  0.34412     C
H      0.51625   0.2436  0.85635     H
H      0.51625   0.2564  0.64365     H
H      0.51625   0.7436  0.35635     H
H      0.51625   0.7564  0.14365     H
O      0.53463  0.03463  0.53463     O
O      0.53463  0.46537  0.96537     O
O      0.53463  0.53463  0.03463     O
O      0.53463  0.96537  0.46537     O
O      0.54718  0.04718  0.45282     O
O      0.54718  0.45282  0.04718     O
O      0.54718  0.54718  0.95282     O
O      0.54718  0.95282  0.54718     O
O       0.5657  0.11975  0.50215     O
O       0.5657  0.38025  0.99785     O
O       0.5657  0.61975  0.00215     O
O       0.5657  0.88025  0.49785     O
H      0.56572  0.06572  0.43428     H
H      0.56572  0.43428  0.06572     H
H      0.56572  0.56572  0.93428     H
H      0.56572  0.93428  0.56572     H
O      0.56695  0.00195   0.6192     O
O      0.56695  0.49805   0.8808     O
O      0.56695  0.50195   0.1192     O
O      0.56695  0.99805   0.3808     O
Cl     0.58295  0.21455   0.4983    Cl
Cl     0.58295  0.28545   0.0017    Cl
Cl     0.58295  0.71455   0.9983    Cl
Cl     0.58295  0.78545   0.5017    Cl
Zr      0.5844      0.0      0.5    Zr
Zr      0.5844      0.5      0.0    Zr
H      0.59102  0.01277  0.69138     H
H      0.59102  0.48723  0.80862     H
H      0.59102  0.51277  0.19138     H
H      0.59102  0.98723  0.30862     H
C      0.60615   0.1073  0.50345     C
C      0.60615   0.3927  0.99655     C
C      0.60615   0.6073  0.00345     C
C      0.60615   0.8927  0.49655     C
C       0.6073  0.00345  0.60615     C
C       0.6073  0.49655  0.89385     C
C       0.6073  0.50345  0.10615     C
C       0.6073  0.99655  0.39385     C
O       0.6192  0.06695  0.50195     O
O       0.6192  0.43305  0.99805     O
O       0.6192  0.56695  0.00195     O
O       0.6192  0.93305  0.49805     O
O      0.61975  0.00215   0.5657     O
O      0.61975  0.49785   0.9343     O
O      0.61975  0.50215   0.0657     O
O      0.61975  0.99785   0.4343     O
C      0.62685    0.011  0.68635     C
C      0.62685    0.489  0.81365     C
C      0.62685    0.511  0.18635     C
C      0.62685    0.989  0.31365     C
C       0.6355   0.1891   0.5043     C
C       0.6355   0.3109   0.9957     C
C       0.6355   0.6891   0.0043     C
C       0.6355   0.8109   0.4957     C
C      0.64222  0.14232  0.50637     C
C      0.64222  0.35768  0.99363     C
C      0.64222  0.64232  0.00637     C
C      0.64222  0.85768  0.49363     C
C      0.64232  0.00637  0.64222     C
C      0.64232  0.49363  0.85778     C
C      0.64232  0.50637  0.14222     C
C      0.64232  0.99363  0.35778     C
H      0.64365  0.01625   0.7564     H
H      0.64365  0.48375   0.7436     H
H      0.64365  0.51625   0.2564     H
H      0.64365  0.98375   0.2436     H
C      0.65588  0.01298  0.72243     C
C      0.65588  0.48702  0.77757     C
C      0.65588  0.51298  0.22243     C
C      0.65588  0.98702  0.27757     C
H      0.66625  0.24585   0.9958     H
H      0.66625  0.25415   0.5042     H
H      0.66625  0.74585   0.4958     H
H      0.66625  0.75415   0.0042     H
C       0.6715  0.21845  0.50625     C
C       0.6715  0.28155  0.99375     C
C       0.6715  0.71845  0.00625     C
C       0.6715  0.78155  0.49375     C
C      0.68635  0.12685    0.511     C
C      0.68635  0.37315    0.989     C
C      0.68635  0.62685    0.011     C
C      0.68635  0.87315    0.489     C
C       0.6891   0.0043   0.6355     C
C       0.6891   0.4957   0.8645     C
C       0.6891   0.5043   0.1355     C
C       0.6891   0.9957   0.3645     C
H      0.69138  0.09102  0.51277     H
H      0.69138  0.40898  0.98723     H
H      0.69138  0.59102  0.01277     H
H      0.69138  0.90898  0.48723     H
C      0.70197  0.01047  0.71513     C
C      0.70197  0.48953  0.78487     C
C      0.70197  0.51047  0.21513     C
C      0.70197  0.98953  0.28487     C
Cl     0.71455   0.0017  0.41705    Cl
Cl     0.71455   0.4983  0.08295    Cl
Cl     0.71455   0.5017  0.91705    Cl
Cl     0.71455   0.9983  0.58295    Cl
C      0.71513  0.20197  0.51047     C
C      0.71513  0.29803  0.98953     C
C      0.71513  0.70197  0.01047     C
C      0.71513  0.79803  0.48953     C
C      0.71845  0.00625   0.6715     C
C      0.71845  0.49375   0.8285     C
C      0.71845  0.50625   0.1715     C
C      0.71845  0.99375   0.3285     C
C      0.72243  0.15588  0.51298     C
C      0.72243  0.34412  0.98702     C
C      0.72243  0.65588  0.01298     C
C      0.72243  0.84412  0.48702     C
N      0.72932  0.01142  0.75383     N
N      0.72932  0.48858  0.74617     N
N      0.72932  0.51142  0.25383     N
N      0.72932  0.98858  0.24617     N
H       0.7436  0.14365  0.98375     H
H       0.7436  0.35635  0.51625     H
H       0.7436  0.64365  0.48375     H
H       0.7436  0.85635  0.01625     H
H      0.74585   0.0042  0.83375     H
H      0.74585   0.4958  0.66625     H
H      0.74585   0.5042  0.33375     H
H      0.74585   0.9958  0.16625     H
N      0.74617  0.22932  0.98858     N
N      0.74617  0.27068  0.51142     N
N      0.74617  0.72932  0.48858     N
N      0.74617  0.77068  0.01142     N
N      0.75383  0.22932  0.51142     N
N      0.75383  0.27068  0.98858     N
N      0.75383  0.72932  0.01142     N
N      0.75383  0.77068  0.48858     N
H      0.75415   0.0042  0.66625     H
H      0.75415   0.4958  0.83375     H
H      0.75415   0.5042  0.16625     H
H      0.75415   0.9958  0.33375     H
H       0.7564  0.14365  0.51625     H
H       0.7564  0.35635  0.98375     H
H       0.7564  0.64365  0.01625     H
H       0.7564  0.85635  0.48375     H
N      0.77068  0.01142  0.74617     N
N      0.77068  0.48858  0.75383     N
N      0.77068  0.51142  0.24617     N
N      0.77068  0.98858  0.25383     N
C      0.77757  0.15588  0.98702     C
C      0.77757  0.34412  0.51298     C
C      0.77757  0.65588  0.48702     C
C      0.77757  0.84412  0.01298     C
C      0.78155  0.00625   0.8285     C
C      0.78155  0.49375   0.6715     C
C      0.78155  0.50625   0.3285     C
C      0.78155  0.99375   0.1715     C
C      0.78487  0.20197  0.98953     C
C      0.78487  0.29803  0.51047     C
C      0.78487  0.70197  0.48953     C
C      0.78487  0.79803  0.01047     C
Cl     0.78545   0.0017  0.08295    Cl
Cl     0.78545   0.4983  0.41705    Cl
Cl     0.78545   0.5017  0.58295    Cl
Cl     0.78545   0.9983  0.91705    Cl
C      0.79803  0.01047  0.78487     C
C      0.79803  0.48953  0.71513     C
C      0.79803  0.51047  0.28487     C
C      0.79803  0.98953  0.21513     C
H      0.80862  0.09102  0.98723     H
H      0.80862  0.40898  0.51277     H
H      0.80862  0.59102  0.48723     H
H      0.80862  0.90898  0.01277     H
C       0.8109   0.0043   0.8645     C
C       0.8109   0.4957   0.6355     C
C       0.8109   0.5043   0.3645     C
C       0.8109   0.9957   0.1355     C
C      0.81365  0.12685    0.989     C
C      0.81365  0.37315    0.511     C
C      0.81365  0.62685    0.489     C
C      0.81365  0.87315    0.011     C
C       0.8285  0.21845  0.99375     C
C       0.8285  0.28155  0.50625     C
C       0.8285  0.71845  0.49375     C
C       0.8285  0.78155  0.00625     C
H      0.83375  0.24585   0.5042     H
H      0.83375  0.25415   0.9958     H
H      0.83375  0.74585   0.0042     H
H      0.83375  0.75415   0.4958     H
C      0.84412  0.01298  0.77757     C
C      0.84412  0.48702  0.72243     C
C      0.84412  0.51298  0.27757     C
C      0.84412  0.98702  0.22243     C
H      0.85635  0.01625   0.7436     H
H      0.85635  0.48375   0.7564     H
H      0.85635  0.51625   0.2436     H
H      0.85635  0.98375   0.2564     H
C      0.85768  0.00637  0.85778     C
C      0.85768  0.49363  0.64222     C
C      0.85768  0.50637  0.35778     C
C      0.85768  0.99363  0.14222     C
C      0.85778  0.14232  0.99363     C
C      0.85778  0.35768  0.50637     C
C      0.85778  0.64232  0.49363     C
C      0.85778  0.85768  0.00637     C
C       0.8645   0.1891   0.9957     C
C       0.8645   0.3109   0.5043     C
C       0.8645   0.6891   0.4957     C
C       0.8645   0.8109   0.0043     C
C      0.87315    0.011  0.81365     C
C      0.87315    0.489  0.68635     C
C      0.87315    0.511  0.31365     C
C      0.87315    0.989  0.18635     C
O      0.88025  0.00215   0.9343     O
O      0.88025  0.49785   0.5657     O
O      0.88025  0.50215   0.4343     O
O      0.88025  0.99785   0.0657     O
O       0.8808  0.06695  0.99805     O
O       0.8808  0.43305  0.50195     O
O       0.8808  0.56695  0.49805     O
O       0.8808  0.93305  0.00195     O
C       0.8927  0.00345  0.89385     C
C       0.8927  0.49655  0.60615     C
C       0.8927  0.50345  0.39385     C
C       0.8927  0.99655  0.10615     C
C      0.89385   0.1073  0.99655     C
C      0.89385   0.3927  0.50345     C
C      0.89385   0.6073  0.49655     C
C      0.89385   0.8927  0.00345     C
H      0.90898  0.01277  0.80862     H
H      0.90898  0.48723  0.69138     H
H      0.90898  0.51277  0.30862     H
H      0.90898  0.98723  0.19138     H
Zr      0.9156      0.0      0.0    Zr
Zr      0.9156      0.5      0.5    Zr
Cl     0.91705  0.21455   0.0017    Cl
Cl     0.91705  0.28545   0.4983    Cl
Cl     0.91705  0.71455   0.5017    Cl
Cl     0.91705  0.78545   0.9983    Cl
O      0.93305  0.00195   0.8808     O
O      0.93305  0.49805   0.6192     O
O      0.93305  0.50195   0.3808     O
O      0.93305  0.99805   0.1192     O
H      0.93428  0.06572  0.06572     H
H      0.93428  0.43428  0.43428     H
H      0.93428  0.56572  0.56572     H
H      0.93428  0.93428  0.93428     H
O       0.9343  0.11975  0.99785     O
O       0.9343  0.38025  0.50215     O
O       0.9343  0.61975  0.49785     O
O       0.9343  0.88025  0.00215     O
O      0.95282  0.04718  0.04718     O
O      0.95282  0.45282  0.45282     O
O      0.95282  0.54718  0.54718     O
O      0.95282  0.95282  0.95282     O
O      0.96537  0.03463  0.96537     O
O      0.96537  0.46537  0.53463     O
O      0.96537  0.53463  0.46537     O
O      0.96537  0.96537  0.03463     O
H      0.98375   0.2436  0.64365     H
H      0.98375   0.2564  0.85635     H
H      0.98375   0.7436  0.14365     H
H      0.98375   0.7564  0.35635     H
C      0.98702  0.22243  0.84412     C
C      0.98702  0.27757  0.65588     C
C      0.98702  0.72243  0.34412     C
C      0.98702  0.77757  0.15588     C
H      0.98723  0.19138  0.90898     H
H      0.98723  0.30862  0.59102     H
H      0.98723  0.69138  0.40898     H
H      0.98723  0.80862  0.09102     H
N      0.98858  0.24617  0.72932     N
N      0.98858  0.25383  0.77068     N
N      0.98858  0.74617  0.22932     N
N      0.98858  0.75383  0.27068     N
C        0.989  0.18635  0.87315     C
C        0.989  0.31365  0.62685     C
C        0.989  0.68635  0.37315     C
C        0.989  0.81365  0.12685     C
C      0.98953  0.21513  0.79803     C
C      0.98953  0.28487  0.70197     C
C      0.98953  0.71513  0.29803     C
C      0.98953  0.78487  0.20197     C
C      0.99363  0.14222  0.85768     C
C      0.99363  0.35778  0.64232     C
C      0.99363  0.64222  0.35768     C
C      0.99363  0.85778  0.14232     C
C      0.99375   0.1715  0.78155     C
C      0.99375   0.3285  0.71845     C
C      0.99375   0.6715  0.28155     C
C      0.99375   0.8285  0.21845     C
C       0.9957   0.1355   0.8109     C
C       0.9957   0.3645   0.6891     C
C       0.9957   0.6355   0.3109     C
C       0.9957   0.8645   0.1891     C
H       0.9958  0.16625  0.74585     H
H       0.9958  0.33375  0.75415     H
H       0.9958  0.66625  0.24585     H
H       0.9958  0.83375  0.25415     H
C      0.99655  0.10615   0.8927     C
C      0.99655  0.39385   0.6073     C
C      0.99655  0.60615   0.3927     C
C      0.99655  0.89385   0.1073     C
O      0.99785   0.0657  0.88025     O
O      0.99785   0.4343  0.61975     O
O      0.99785   0.5657  0.38025     O
O      0.99785   0.9343  0.11975     O
O      0.99805   0.1192  0.93305     O
O      0.99805   0.3808  0.56695     O
O      0.99805   0.6192  0.43305     O
O      0.99805   0.8808  0.06695     O
Cl      0.9983  0.08295  0.21455    Cl
Cl      0.9983  0.41705  0.28545    Cl
Cl      0.9983  0.58295  0.71455    Cl
Cl      0.9983  0.91705  0.78545    Cl
