data_I
_chemical_name_common  '/home/zhangsd/repos/MofS-CGCNN/ML/data/WS24/clean_cifs/Zr6O6_ABDC_12'
_cell_length_a 29.87600
_cell_length_b 29.87600
_cell_length_c 29.87600
_cell_angle_alpha 90.00000
_cell_angle_beta  90.00000
_cell_angle_gamma 90.00000
_space_group_name_H-M_alt      'P 1'


loop_
_space_group_symop_operation_xyz
  'x, y, z' 

loop_
_atom_site_label
_atom_site_fract_x
_atom_site_fract_y
_atom_site_fract_z
_atom_site_type_symbol
Zr      0.0001   0.0001   0.0833    Zr
Zr      0.0001   0.0001   0.9169    Zr
Zr      0.0001   0.0833   0.0001    Zr
Zr      0.0001   0.4168      0.5    Zr
Zr      0.0001      0.5   0.4168    Zr
Zr      0.0001      0.5   0.5832    Zr
Zr      0.0001   0.5832      0.5    Zr
C       0.0001  0.64011  0.36005     C
Zr      0.0001   0.9169   0.0001    Zr
C      0.00103  0.14062  0.13966     C
C      0.00111   0.3606  0.64069     C
O      0.00189  0.06516  0.11886     O
O      0.00189  0.11886  0.06516     O
O      0.00189  0.38124  0.56506     O
O      0.00189  0.43494  0.61876     O
O      0.00189  0.56506  0.38124     O
O      0.00189  0.61876  0.43494     O
O      0.00189  0.88134  0.93504     O
O      0.00189  0.93504  0.88134     O
C      0.00219  0.86148  0.85859     C
C      0.00291  0.10594  0.10594     C
C      0.00291  0.39416  0.60584     C
C      0.00291  0.60584  0.39416     C
C      0.00291  0.89426  0.89426     C
C      0.00428  0.69888  0.71409     C
N      0.00787  0.72839  0.75106     N
C      0.00988  0.20286  0.79026     C
C      0.01034  0.29122  0.29639     C
C      0.01072  0.79394  0.20654     C
C      0.01556  0.78763  0.82678     C
N      0.01623  0.23438  0.75537     N
N      0.01691  0.25676  0.26445     N
N      0.01756  0.76081  0.23981     N
C       0.0176  0.62525  0.68239     C
C      0.01859  0.81753  0.86265     C
C      0.02063   0.6552  0.71822     C
H      0.02845  0.75402  0.83084     H
C      0.03005  0.29811  0.68431     C
H      0.03055  0.59165  0.68659     H
C      0.03123  0.18664   0.1998     C
C      0.03247  0.69353  0.30729     C
H      0.03377  0.80621  0.89356     H
O      0.03512  0.03512  0.03512     O
O      0.03512  0.46498  0.53502     O
O      0.03512  0.53502  0.46498     O
O      0.03512  0.96508  0.96508     O
C      0.03531  0.32963  0.65012     C
H      0.03576  0.64434  0.74932     H
C      0.03666  0.15279  0.16794     C
C      0.03813  0.66072  0.34018     C
C      0.03875  0.14058  0.83373     C
C      0.04047  0.33708  0.35632     C
C      0.04238  0.84718  0.15395     C
C      0.04394  0.17211  0.79955     C
C      0.04583  0.30323  0.32446     C
O      0.04685  0.04685  0.95335     O
O      0.04685  0.45325  0.45325     O
O      0.04685  0.54675  0.54675     O
O      0.04685  0.95335  0.04685     O
C      0.04795  0.81438  0.18685     C
H      0.05691  0.27469  0.69084     H
H      0.05921   0.1953  0.22111     H
H      0.06182  0.70883  0.29257     H
O      0.06516  0.00189  0.11886     O
O      0.06516  0.11886  0.00189     O
O      0.06516  0.38124  0.50179     O
O      0.06516  0.49821  0.61876     O
O      0.06516   0.5018  0.38124     O
O      0.06516  0.61876  0.49821     O
O      0.06516  0.88134  0.99831     O
O      0.06516  0.99831  0.88134     O
H      0.06566  0.06566  0.93454     H
H      0.06566  0.43444  0.43444     H
H      0.06566  0.56556  0.56556     H
H      0.06566  0.93454  0.06566     H
H      0.06569   0.1172  0.84015     H
H      0.06616  0.32975  0.63109     H
H      0.06854  0.34565  0.37759     H
H      0.06877  0.13615  0.16546     H
H      0.07177  0.65151  0.35001     H
H      0.07184   0.8624  0.13932     H
H       0.0746  0.17259  0.78022     H
H      0.07775  0.28629  0.32164     H
H      0.08141  0.80485  0.19706     H
Zr      0.0833   0.0001   0.0001    Zr
Zr      0.0833      0.5      0.5    Zr
H      0.08691  0.49115   0.6924     H
H      0.08766  0.01113  0.80867     H
H      0.10118  0.80166   0.0012     H
H      0.10356  0.19595  0.98189     H
C      0.10594  0.00291  0.10594     C
C      0.10594  0.10594  0.00291     C
C      0.10594  0.39416  0.50281     C
C      0.10594  0.49719  0.60584     C
C      0.10594  0.50281  0.39416     C
C      0.10594  0.60584  0.49719     C
C      0.10594  0.89426  0.99729     C
C      0.10594  0.99729  0.89426     C
O      0.11886  0.00189  0.06516     O
O      0.11886  0.06516  0.00189     O
O      0.11886  0.43494  0.50179     O
O      0.11886  0.49821  0.56506     O
O      0.11886   0.5018  0.43494     O
O      0.11886  0.56506  0.49821     O
O      0.11886  0.93504  0.99831     O
O      0.11886  0.99831  0.93504     O
C      0.12244  0.49384   0.6858     C
C      0.12289  0.00531  0.81489     C
H      0.12972  0.64728   0.5709     H
C      0.13472  0.81522  0.99894     C
C      0.13595  0.18355  0.99244     C
C      0.13857  0.49671  0.64169     C
C      0.13857  0.99698  0.85847     C
H      0.13907  0.49215  0.75576     H
C      0.13975  0.64041  0.49929     C
H      0.13993   0.0127   0.7454     H
C       0.1403  0.00607  0.13979     C
C      0.14042  0.50537  0.36011     C
C      0.14045  0.36026  0.50087     C
C      0.14167  0.13841  0.00443     C
H      0.14172  0.34015  0.57064     H
C      0.14176  0.86167  0.99637     C
H      0.14236  0.93561  0.15715     H
H      0.14258  0.43439  0.34487     H
H      0.14752  0.07786  0.13143     H
H      0.14754  0.57736   0.3663     H
C      0.14813  0.65873  0.54185     C
H      0.14848  0.37142  0.42957     H
C      0.15209   0.4944    0.722     C
C      0.15259  0.00623  0.77874     C
C      0.15568  0.33502  0.53759     C
C      0.15593   0.9686  0.16357     C
C      0.15612  0.46719  0.33745     C
H      0.15875  0.64282  0.42926     H
C      0.15883  0.04834  0.14915     C
C      0.15889  0.54733  0.34949     C
C      0.15945  0.35256  0.45851     C
C       0.1644  0.65623  0.46246     C
H      0.16457  0.75003   0.0001     H
H      0.16667  0.24787  0.98451     H
C      0.17098  0.78563  0.99864     C
C      0.17205  0.21331  0.99392     C
C      0.18045  0.69211  0.54737     C
C       0.1843  0.12368  0.01795     C
C       0.1846  0.98959  0.86507     C
C      0.18499  0.50016   0.6346     C
C      0.18587  0.87789  0.99348     C
H      0.18646  0.70584  0.58038     H
C      0.18916   0.3028  0.53202     C
C      0.18936  0.97327  0.19599     C
C      0.18955  0.47094  0.30491     C
H      0.18982  0.08912   0.0274     H
C      0.19224  0.05294  0.18158     C
C       0.1923    0.551  0.31694     C
H      0.19242  0.91348  0.99145     H
C      0.19292  0.32033  0.45302     C
C      0.19671  0.68962  0.46805     C
H      0.19774  0.98308  0.89823     H
C      0.19823  0.49783  0.71484     C
C      0.19835  0.99887  0.78542     C
H      0.19847  0.50244  0.60103     H
H      0.20023  0.28387  0.56086     H
H      0.20076  0.94384  0.21378     H
H      0.20099    0.441  0.28801     H
C      0.20491  0.70777  0.51065     C
H      0.20613  0.08573  0.18836     H
H      0.20615  0.58359  0.30918     H
H      0.20718  0.31484  0.42015     H
C      0.20772  0.01558  0.20518     C
C      0.20784  0.51298  0.29447     C
C      0.20799  0.29528   0.4896     C
C      0.21426  0.99052  0.82888     C
C      0.21453  0.19837  0.00745     C
C      0.21459  0.50072  0.67085     C
C      0.21494  0.80205  0.99574     C
H      0.21518  0.70116   0.4391     H
C      0.22035  0.15347  0.01941     C
C      0.22207  0.84825  0.99317     C
N      0.22735  0.49831  0.75229     N
N      0.22754   0.0001  0.74804     N
N      0.23743  0.74165  0.51742     N
N      0.24163  0.02142  0.23784     N
N      0.24176  0.51789  0.26166     N
N      0.24198  0.26287  0.48286     N
H      0.24431  0.63884  0.00223     H
H       0.2472  0.35828   0.9774     H
N      0.24772  0.72723  0.99778     N
N      0.24835  0.27215  0.99801     N
H       0.2495  0.98472  0.83494     H
H      0.25014  0.50341  0.66441     H
H      0.25021   0.4966  0.83547     H
H      0.25084  0.00831  0.66538     H
N      0.25179  0.22769  0.00931     N
N       0.2524  0.77293  0.99535     N
H      0.25294  0.14155  0.02989     H
H      0.25581  0.86132  0.99093     H
N      0.25828  0.23716  0.51735     N
N      0.25831  0.98613  0.26219     N
N       0.2585  0.48191  0.23838     N
N       0.2626  0.75849  0.48279     N
N      0.27282  0.99308  0.75229     N
N        0.273  0.50161  0.74759     N
C      0.27805   0.6519   0.9999     C
C      0.27978  0.34637  0.98792     C
H      0.28479  0.79904  0.56109     H
C      0.28518   0.6981  0.99737     C
C       0.2856  0.30148   0.9999     C
C      0.28576  0.49927  0.82903     C
C      0.28609  0.00252  0.67144     C
C      0.29224  0.99197  0.29484     C
C      0.29225  0.20473   0.5106     C
C       0.2924  0.48683  0.20555     C
H      0.29309   0.1852  0.58006     H
H      0.29379  0.92182  0.31169     H
H      0.29413   0.4162  0.19087     H
C       0.2951  0.79239  0.48955     C
H      0.29921  0.55881  0.21197     H
H      0.29924  0.06369  0.28619     H
H      0.29997   0.2161  0.43933     H
H      0.30184  0.49761  0.89885     H
C      0.30201  0.99422   0.7149     C
C      0.30212  0.50211  0.78504     C
H      0.30258  0.00991  0.60209     H
C      0.30327  0.81057  0.53214     C
C      0.30733  0.17969  0.54718     C
H      0.30767  0.58667  0.00167     H
C      0.30771  0.95461  0.31844     C
C      0.30795   0.4488   0.1831     C
H      0.31028  0.41072  0.97994     H
C      0.31063  0.03426  0.30399     C
C      0.31067  0.52887  0.19508     C
C      0.31105  0.19718  0.46817     C
H      0.31358  0.79428  0.41983     H
C      0.31425  0.62225   0.9999     C
C      0.31535  0.49985  0.86529     C
C      0.31574  0.00343  0.63524     C
C      0.31582  0.37618   0.9894     C
C      0.31957  0.80804  0.45283     C
C      0.32807  0.28655  0.01346     C
C      0.32914  0.71452  0.99443     C
H      0.33345  0.25199  0.02289     H
H      0.33556  0.75012  0.99239     H
C      0.33556  0.84398  0.53772     C
C      0.34078  0.14745  0.54168     C
C      0.34114   0.9592  0.35086     C
H       0.3412  0.85742  0.57091     H
C      0.34135  0.45249  0.15053     C
C      0.34407  0.03893   0.3364     C
C      0.34407  0.53263  0.16252     C
C      0.34452  0.16494  0.46259     C
C      0.34776  0.98687  0.72159     C
C      0.34826  0.50553  0.77788     C
H      0.35178  0.12858  0.57061     H
C      0.35188  0.84144  0.45834     C
H      0.35242  0.92966  0.36858     H
H      0.35271  0.42246  0.13371     H
H      0.35757  0.56544   0.1551     H
H      0.35768   0.0719  0.34281     H
C      0.35834  0.63844  0.99669     C
C      0.35842  0.36148  0.00294     C
H      0.35843   0.1598  0.42952     H
C       0.3597  0.00142   0.3602     C
C      0.35975  0.13972  0.49928     C
C      0.35978  0.49449  0.13988     C
C      0.36023  0.85979  0.50086     C
H      0.36044  0.98043  0.75493     H
H      0.36129  0.50775  0.74412     H
C      0.36174  0.99606  0.64183     C
C      0.36175  0.50329  0.85822     C
C      0.36416  0.31631  0.01496     C
C       0.3654  0.68493   0.9941     C
H      0.37028  0.85287  0.42928     H
C      0.37745  0.98776  0.68543     C
C       0.3779  0.50612  0.81409     C
O      0.38124  0.00189  0.43494     O
O      0.38124  0.06516  0.49821     O
O      0.38124  0.43494  0.00189     O
O      0.38124  0.49821  0.06516     O
O      0.38124  0.50179  0.93504     O
O      0.38124  0.56506  0.99831     O
O      0.38124  0.93504  0.50179     O
O      0.38124  0.99831  0.56506     O
C      0.39416  0.00291  0.39416     C
C      0.39416  0.10594  0.49719     C
C      0.39416  0.39416  0.00291     C
C      0.39416  0.49719  0.10594     C
C      0.39416  0.50281  0.89426     C
C      0.39416  0.60584  0.99729     C
C      0.39416  0.89426  0.50281     C
C      0.39416  0.99729  0.60584     C
H      0.39655  0.30394  0.02554     H
H      0.39895  0.69846   0.9918     H
H      0.41269  0.98196  0.69164     H
H      0.41345   0.5088   0.8075     H
H      0.41346  0.30095  0.19535     H
Zr      0.4168   0.0001      0.5    Zr
Zr      0.4168      0.5   0.0001    Zr
H      0.42079  0.69919  0.19544     H
H      0.42141  0.35892  0.13777     H
H      0.42742  0.14832  0.34871     H
H      0.42873  0.64125  0.13785     H
H      0.43022  0.76765  0.66208     H
H      0.43444  0.06566  0.56556     H
H      0.43444  0.43444  0.93454     H
H      0.43444  0.56556  0.06566     H
H      0.43444  0.93454  0.43444     H
H      0.43475  0.85189   0.3487     H
O      0.43494  0.00189  0.38124     O
O      0.43494  0.11886  0.49821     O
O      0.43494  0.38124  0.00189     O
O      0.43494  0.49821  0.11886     O
O      0.43494  0.50179  0.88134     O
O      0.43494  0.61876  0.99831     O
O      0.43494  0.88134  0.50179     O
O      0.43494  0.99831  0.61876     O
H      0.43573  0.20602  0.29135     H
H      0.43655   0.8288  0.60769     H
H      0.44134  0.62064  0.82103     H
H      0.44307  0.79416   0.2914     H
C      0.44661  0.31204  0.18577     C
H      0.44801  0.68167  0.76703     H
C      0.45127  0.34508  0.15296     C
O      0.45325  0.04685  0.54675     O
O      0.45325  0.45325  0.95335     O
O      0.45325  0.54675  0.04685     O
O      0.45325  0.95335  0.45325     O
C      0.45395  0.68807  0.18588     C
C      0.45674  0.79208  0.66583     C
C      0.45859  0.65505  0.15305     C
C      0.46045  0.82698  0.63488     C
C      0.46078  0.15907  0.33944     C
O      0.46498  0.03512  0.46498     O
O      0.46498  0.46498  0.03512     O
O      0.46498  0.53502  0.96508     O
O      0.46498  0.96508  0.53502     O
C      0.46549  0.19209  0.30661     C
H      0.46642  0.24974  0.64486     H
C      0.46804  0.64479  0.82519     C
C      0.46811  0.84109  0.33951     C
H         0.47  0.18694  0.59211     H
C      0.47183  0.67971  0.79426     C
H      0.47273  0.39392  0.80667     H
C      0.47283  0.80805   0.3067     C
H      0.47643  0.33113  0.75441     H
N      0.47849  0.25993   0.2393     N
C      0.48126  0.21843   0.6555     C
N      0.48225  0.75279  0.73219     N
C      0.48335  0.18256  0.62552     C
C      0.48439  0.29336  0.20615     C
N      0.48582  0.74014  0.23946     N
C      0.48697  0.78859  0.70141     C
C      0.48763   0.3628  0.81777     C
C      0.48973  0.32688  0.78784     C
C      0.49173  0.70672  0.20631     C
C        0.494     0.36  0.13998     C
C      0.49461  0.85907  0.63908     C
N      0.49551  0.25107   0.7285     N
C      0.49719  0.10594  0.39416     C
C      0.49719  0.39416  0.10594     C
C      0.49719  0.60584  0.89426     C
C      0.49719  0.89426  0.60584     C
C      0.49816  0.21405  0.69894     C
O      0.49821  0.06516  0.38124     O
O      0.49821  0.11886  0.43494     O
O      0.49821  0.38124  0.06516     O
O      0.49821  0.43494  0.11886     O
O      0.49821  0.56506  0.88134     O
O      0.49821  0.61876  0.93504     O
O      0.49821  0.88134  0.56506     O
O      0.49821  0.93504  0.61876     O
C      0.49837  0.64117  0.86098     C
C      0.49871   0.1402  0.35999     C
Zr         0.5   0.0001   0.4168    Zr
Zr         0.5   0.0001   0.5832    Zr
Zr         0.5   0.0833      0.5    Zr
Zr         0.5   0.4168   0.0001    Zr
Zr         0.5      0.5   0.0833    Zr
Zr         0.5      0.5   0.9169    Zr
Zr         0.5   0.5832   0.0001    Zr
Zr         0.5   0.9169      0.5    Zr
C      0.50129   0.6401   0.1401     C
O      0.50179  0.06516  0.61876     O
O      0.50179  0.11886  0.56506     O
O      0.50179  0.38124  0.93504     O
O      0.50179  0.43494  0.88134     O
O      0.50179  0.56506  0.11886     O
O      0.50179  0.61876  0.06516     O
O      0.50179  0.88134  0.43494     O
O      0.50179  0.93504  0.38124     O
C      0.50248  0.14158  0.63861     C
C      0.50281  0.10594  0.60584     C
C      0.50281  0.39416  0.89426     C
C      0.50281  0.60584  0.10594     C
C      0.50281  0.89426  0.39416     C
C      0.50459   0.3585  0.86149     C
C        0.506   0.8599  0.36012     C
C      0.50608  0.71164  0.79864     C
C      0.50827   0.2068  0.29378     C
C      0.50884  0.28603  0.80115     C
N      0.51081  0.74743  0.76785     N
N      0.51147    0.249   0.7716     N
N      0.51418  0.24021  0.26061     N
C       0.5156  0.79324  0.29396     C
C      0.51731  0.17322  0.71224     C
C      0.51943   0.1373   0.6823     C
C      0.52119  0.82054  0.70582     C
N      0.52151   0.7598  0.26082     N
C      0.52366  0.31752  0.87458     C
C      0.52495  0.85547   0.6749     C
C      0.52573  0.28165   0.8446     C
C      0.52717   0.3081  0.19336     C
H      0.53062  0.16898  0.74566     H
C       0.5319  0.34114  0.16055     C
C      0.53258  0.67325  0.86517     C
H      0.53437   0.1062  0.69341     H
C       0.5345  0.69195  0.19353     C
O      0.53502  0.03512  0.53502     O
O      0.53502  0.46498  0.96508     O
O      0.53502  0.53502  0.03512     O
O      0.53502  0.96508  0.46498     O
C      0.53632  0.70814  0.83422     C
H      0.53701  0.31312  0.90798     H
C      0.53922  0.65892  0.16071     C
H      0.54054  0.25033  0.85525     H
C      0.54141  0.15509  0.34699     C
H        0.545  0.81859  0.73305     H
C      0.54605  0.18811  0.31416     C
O      0.54675  0.04685  0.45325     O
O      0.54675  0.45325  0.04685     O
O      0.54675  0.54675  0.95335     O
O      0.54675  0.95335  0.54675     O
C      0.54873  0.84492   0.3472     C
H      0.55163  0.87966  0.67907     H
C      0.55338  0.81188   0.3144     C
H      0.55648  0.67141  0.89236     H
H      0.55693  0.29418  0.20862     H
H      0.56286  0.73255  0.83795     H
H      0.56426  0.70584  0.20883     H
O      0.56506  0.00189  0.61876     O
O      0.56506  0.11886  0.50179     O
O      0.56506  0.38124  0.99831     O
O      0.56506  0.49821  0.88134     O
O      0.56506  0.50179  0.11886     O
O      0.56506  0.61876  0.00189     O
O      0.56506  0.88134  0.49821     O
O      0.56506  0.99831  0.38124     O
H      0.56525   0.3519  0.15131     H
H      0.56556  0.06566  0.43444     H
H      0.56556  0.43444  0.06566     H
H      0.56556  0.56556  0.93454     H
H      0.56556  0.93454  0.56556     H
H      0.57128  0.14125  0.36215     H
H      0.57257  0.64813  0.15148     H
H      0.57859  0.85872  0.36243     H
H      0.57921  0.19917  0.30455     H
Zr      0.5832   0.0001      0.5    Zr
Zr      0.5832      0.5   0.0001    Zr
H      0.58654  0.80074  0.30486     H
H      0.58664  0.80775  0.50366     H
H      0.58717  0.99225  0.69183     H
H      0.58885  0.52007  0.81056     H
H      0.58922  0.68992  0.97995     H
H      0.60099  0.49864  0.19854     H
C      0.60584  0.00291  0.60584     C
C      0.60584  0.10594  0.50281     C
C      0.60584  0.39416  0.99729     C
C      0.60584  0.49719  0.89426     C
C      0.60584  0.50281  0.10594     C
C      0.60584  0.60584  0.00291     C
C      0.60584  0.89426  0.49719     C
C      0.60584  0.99729  0.39416     C
O      0.61876  0.00189  0.56506     O
O      0.61876  0.06516  0.50179     O
O      0.61876  0.43494  0.99831     O
O      0.61876  0.49821  0.93504     O
O      0.61876  0.50179  0.06516     O
O      0.61876  0.56506  0.00189     O
O      0.61876  0.93504  0.49821     O
O      0.61876  0.99831  0.43494     O
C      0.62223  0.81423  0.50136     C
C      0.62255   0.9968  0.68545     C
C      0.62357  0.51123  0.81602     C
C      0.62378   0.6844   0.9894     C
H      0.63446  0.06185  0.33494     H
C      0.63458  0.50039  0.18503     C
H      0.63586  0.35687  0.07124     H
C      0.63845  0.85823  0.49711     C
C      0.63846  0.00332  0.64165     C
C      0.63851  0.64177  0.00291     C
C      0.63853  0.49761   0.8585     C
H      0.63879  0.74439  0.50599     H
H      0.63891  0.15883  0.43525     H
H      0.63939  0.99102  0.75514     H
C      0.63994  0.35983   0.9988     C
C      0.64044  0.13988  0.50534     C
C      0.64068  0.99422   0.3606     C
H      0.64123  0.52418  0.74751     H
H      0.64165  0.75304  0.97745     H
C      0.64169  0.50325  0.13857     C
H      0.65131   0.1299  0.57643     H
C      0.65181  0.34381  0.04142     C
C      0.65186  0.77804   0.5027     C
C      0.65191  0.03019  0.33241     C
C      0.65223  0.99608  0.72162     C
H      0.65309  0.35358  0.92765     H
C      0.65334  0.51361     0.78     C
C      0.65357  0.72045  0.98794     C
C      0.65418   0.1645  0.46763     C
H      0.65635  0.92532   0.3774     H
C      0.66111  0.14827  0.54677     C
C      0.66148  0.34195  0.96094     C
C      0.66418  0.95366   0.3562     C
H      0.66438  0.49754   0.2502     H
C      0.67083  0.49976  0.21462     C
C      0.68365  0.63605   0.0149     C
C      0.68392  0.48642  0.86414     C
C       0.6845  0.31065  0.04606     C
C      0.68469   0.0091  0.63484     C
C       0.6849  0.86518  0.49423     C
C      0.68582  0.50547   0.1224     C
C      0.68588   0.0257  0.30053     C
C      0.68785   0.1968  0.47132     C
H      0.69244  0.50769  0.08683     H
H      0.69323   0.2987  0.07915     H
H      0.69382  0.05395  0.27928     H
C      0.69417  0.30879  0.96565     C
C      0.69477  0.18058  0.55039     C
H      0.69605  0.60366  0.02545     H
H       0.6965   0.4758  0.89644     H
H      0.69775  0.21525  0.44175     H
H        0.698  0.01419  0.60151     H
C      0.69806  0.78508  0.49983     C
C      0.69814  0.94924  0.32431     C
C      0.69818  0.00184  0.71474     C
C      0.69846  0.50247  0.78572     C
C      0.69846  0.71463   0.9999     C
H      0.69846  0.89863  0.49093     H
C      0.70587  0.29294  0.00835     C
C      0.70836  0.20501  0.51283     C
C      0.70922   0.9851  0.29632     C
H       0.7102  0.29564  0.93594     H
H      0.71033  0.18661  0.58257     H
C       0.7134  0.67215  0.01342     C
C      0.71365  0.48882  0.82808     C
C      0.71432  0.00837  0.67106     C
C      0.71449  0.82893  0.49557     C
C      0.71484  0.50198  0.19822     C
H      0.71589  0.91776  0.32139     H
C      0.72202  0.50483  0.15204     C
N      0.72718  0.74764  0.50129     N
N      0.72735   0.0001  0.75216     N
N      0.72774  0.50525   0.7485     N
N      0.72779  0.75188  0.99804     N
N      0.73886  0.25936  0.01424     N
N      0.74258  0.23752  0.51767     N
N      0.74382  0.97949  0.26435     N
H      0.74408  0.49354  0.36137     H
N      0.74758  0.49867  0.27302     N
H      0.74797  0.66677  0.02284     H
H      0.74839  0.48002  0.83338     H
H      0.74972   0.0129  0.66484     H
H      0.74997  0.66461  0.50672     H
H      0.75008  0.83527  0.49329     H
H      0.75042  0.99446  0.83504     H
H      0.75175  0.51993  0.66694     H
H      0.75208  0.83355  0.98446     H
N       0.7523  0.50141  0.22734     N
H       0.7558  0.50656  0.13899     H
N      0.75634  0.01336  0.23584     N
N      0.75747  0.26265  0.48213     N
N      0.76109  0.24057  0.97862     N
N      0.77225  0.74845  0.00934     N
N      0.77242  0.49479  0.75184     N
N      0.77281  0.00636  0.74772     N
N      0.77287  0.75223  0.49863     N
C      0.77785  0.49524  0.34831     C
H      0.78426  0.07507  0.17879     H
C      0.78503  0.49808  0.30213     C
C      0.78557  0.67095  0.50442     C
C      0.78583  0.99898  0.82882     C
C       0.7865  0.51114  0.67224     C
C      0.78665  0.82817  0.99389     C
H      0.78974  0.31355  0.41722     H
H      0.78981  0.20435  0.05692     H
C      0.79096  0.00776  0.20389     C
C      0.79167  0.29518  0.48698     C
C      0.79411    0.207  0.98451     C
C      0.80158   0.7857  0.00746     C
H      0.80162  0.60125  0.50912     H
C       0.8017  0.49754  0.71461     C
C      0.80197  0.00547  0.78513     C
C      0.80199   0.7148  0.50012     C
C      0.80203  0.04361  0.17588     C
H      0.80212  0.99322  0.89837     H
H      0.80224  0.28498  0.55806     H
H      0.80361  0.52411  0.60387     H
H      0.80404  0.89665   0.9818     H
C      0.80527   0.3196  0.44941     C
C      0.80583  0.19119  0.02721     C
H      0.80641  0.93892  0.22097     H
H      0.80671  0.20121   0.9137     H
H      0.80746  0.49237  0.41352     H
C      0.81216  0.30342  0.52849     C
C      0.81406  0.49458  0.37795     C
C      0.81433  0.96717  0.19971     C
C      0.81515  0.63471  0.50579     C
C      0.81545  0.99828  0.86505     C
C      0.81546  0.18928   0.9468     C
C      0.81621  0.51352  0.63616     C
C      0.81641  0.86426  0.99238     C
C      0.82905  0.50026  0.28573     C
H       0.8355  0.50246  0.25015     H
C      0.83601  0.03921  0.14401     C
C      0.83854  0.15804  0.03193     C
C      0.83891  0.35192  0.45304     C
H      0.84382  0.06755  0.12281     H
C      0.84581  0.33574  0.53219     C
C      0.84647  0.77988  0.01943     C
C      0.84682  0.48641  0.72033     C
H      0.84694  0.14645  0.06523     H
C      0.84792  0.01121  0.77825     C
C      0.84817  0.15615  0.95145     C
C      0.84819  0.72184  0.49723     C
C      0.84832  0.96269  0.16785     C
H      0.84873   0.3703  0.42339     H
C      0.85822  0.49675  0.36175     C
H      0.85838   0.7473  0.02994     H
H      0.85894  0.47588  0.75283     H
C      0.85953  0.99869  0.13964     C
C      0.85956  0.36034  0.49451     C
C      0.86007  0.14016   0.9941     C
H      0.86078  0.01624  0.74473     H
H      0.86103  0.34142  0.56459     H
H      0.86125  0.75549  0.49391     H
C      0.86158  0.50236  0.64179     C
C      0.86158  0.85852   0.0044     C
C      0.86163  0.64168  0.50289     C
C      0.86165  0.00404  0.85826     C
H      0.86412  0.14306  0.92164     H
C      0.86531   0.4996  0.31531     C
H      0.86581  0.93105  0.16532     H
C      0.87628  0.81592  0.01795     C
C      0.87658  0.48877   0.6843     C
C      0.87759  0.01052  0.81443     C
C      0.87783  0.68565   0.4986     C
O      0.88134  0.00189  0.93504     O
O      0.88134  0.06516  0.99831     O
O      0.88134  0.43494  0.49821     O
O      0.88134  0.49821  0.43494     O
O      0.88134   0.5018  0.56506     O
O      0.88134  0.56506  0.50179     O
O      0.88134  0.93504  0.00189     O
O      0.88134  0.99831  0.06516     O
C      0.89426  0.00291  0.89426     C
C      0.89426  0.10594  0.99729     C
C      0.89426  0.39416  0.49719     C
C      0.89426  0.49719  0.39416     C
C      0.89426  0.50281  0.60584     C
C      0.89426  0.60584  0.50281     C
C      0.89426  0.89426  0.00291     C
C      0.89426  0.99729  0.10594     C
H      0.89889  0.50132  0.30178     H
H      0.91082  0.81038  0.02741     H
H      0.91131  0.47995  0.68975     H
H      0.91299  0.01505  0.80807     H
H      0.91341  0.69216  0.49629     H
Zr      0.9169   0.0001   0.0001    Zr
Zr      0.9169      0.5      0.5    Zr
H       0.9186  0.69541  0.30324     H
H      0.92259  0.21381   0.1787     H
H      0.92572  0.32727  0.71967     H
H      0.92819  0.63782  0.36095     H
H      0.92825  0.84866  0.15016     H
H      0.93161  0.36404  0.33475     H
H       0.9318   0.1545  0.12273     H
H      0.93422  0.17022  0.86889     H
H      0.93454  0.06566  0.06566     H
H      0.93454  0.43444  0.56556     H
H      0.93454  0.56556  0.43444     H
H      0.93454  0.93454  0.93454     H
H      0.93463  0.38268  0.65978     H
O      0.93504  0.00189  0.88134     O
O      0.93504  0.11886  0.99831     O
O      0.93504  0.38124  0.49821     O
O      0.93504  0.49821  0.38124     O
O      0.93504   0.5018  0.61876     O
O      0.93504  0.61876  0.50179     O
O      0.93504  0.88134  0.00189     O
O      0.93504  0.99831  0.11886     O
H      0.93819  0.79136  0.20766     H
H      0.94116  0.30486  0.27915     H
H      0.94346  0.22524  0.80911     H
C      0.95206  0.68586  0.31342     C
O      0.95335  0.04685  0.04685     O
O      0.95335  0.45325  0.54675     O
O      0.95335  0.54675  0.45325     O
O      0.95335  0.95335  0.95335     O
C      0.95452  0.19689  0.17585     C
C       0.9564  0.32777  0.70036     C
C      0.95764  0.65305  0.34631     C
C      0.95989  0.16305  0.14397     C
C      0.96159  0.35932  0.66619     C
C      0.96189  0.83946  0.16004     C
C      0.96371  0.34739  0.33231     C
H      0.96463  0.85576  0.75094     H
C      0.96505   0.1703  0.84984     C
O      0.96508  0.03512  0.96508     O
O      0.96508  0.46498  0.46498     O
O      0.96508  0.53502  0.53502     O
O      0.96508  0.96508  0.03512     O
H      0.96648  0.69387  0.60676     H
C      0.96754  0.80667  0.19294     C
C      0.96914  0.31352  0.30047     C
H      0.96979  0.90843  0.81367     H
C      0.97031  0.20181  0.81564     C
H      0.97185  0.74605  0.66947     H
C      0.97973   0.8449  0.78205     C
C      0.98169  0.68254  0.63765     C
N      0.98245  0.73944  0.26047     N
C      0.98273  0.87484  0.81789     C
N      0.98344  0.24335  0.23587     N
N      0.98411  0.26549  0.74453     N
C      0.98475  0.71244  0.67352     C
C      0.98929  0.70629  0.29372     C
C      0.99002   0.2089  0.20392     C
C      0.99046  0.29702  0.70966     C
N       0.9925  0.77171  0.74921     N
C      0.99607  0.80121   0.7862     C
C      0.99729  0.10594  0.89426     C
C      0.99729  0.39416  0.39416     C
C      0.99729  0.60584  0.60584     C
C      0.99729  0.89426  0.10594     C
C      0.99808  0.63862  0.64168     C
O      0.99831  0.06516  0.88134     O
O      0.99831  0.11886  0.93504     O
O      0.99831  0.38124  0.43494     O
O      0.99831  0.43494  0.38124     O
O      0.99831  0.56506  0.61876     O
O      0.99831  0.61876  0.56506     O
O      0.99831  0.88134  0.06516     O
O      0.99831  0.93504  0.11886     O
C       0.9999  0.13934  0.85927     C
C       0.9999  0.35955  0.36059     C
C       0.9999  0.86008  0.14017     C
