data_I
_chemical_name_common  '/home/zhangsd/repos/MofS-CGCNN/CGCNN_MT/data/WS24v2_external_test/clean_cifs/val_31'
_cell_length_a 26.98220
_cell_length_b 26.98220
_cell_length_c 10.65140
_cell_angle_alpha 90.00000
_cell_angle_beta  90.00000
_cell_angle_gamma 90.00000
_space_group_name_H-M_alt      'P 1'


loop_
_space_group_symop_operation_xyz
  'x, y, z' 

loop_
_atom_site_label
_atom_site_fract_x
_atom_site_fract_y
_atom_site_fract_z
_atom_site_type_symbol
O          0.0  0.23322  0.84357     O
O          0.0  0.33362  0.57727     O
O          0.0  0.66642  0.57727     O
O          0.0  0.76682  0.84357     O
C      0.02594  0.38335  0.73331     C
C      0.02594  0.61675  0.73331     C
C      0.02702  0.20974  0.65317     C
C      0.02702  0.79034  0.65317     C
C      0.04052  0.35124  0.63888     C
C      0.04052  0.64884  0.63888     C
C      0.04152  0.22474  0.76927     C
C      0.04152  0.77534  0.76927     C
H      0.04693   0.4017  0.78745     H
H      0.04693   0.5983  0.78745     H
H      0.04803  0.20087  0.58511     H
H      0.04803  0.79913  0.58511     H
H      0.06794  0.24827  0.99779     H
H      0.06794  0.75173  0.99779     H
H      0.06899  0.28941  0.46367     H
H      0.06899  0.71059  0.46367     H
C      0.08752  0.22672  0.82977     C
C      0.08752  0.77332  0.82977     C
C      0.08812  0.33752  0.59397     C
C      0.08812  0.66252  0.59397     C
C      0.09552  0.23752  0.94977     C
C      0.09552  0.76252  0.94977     C
C      0.09675  0.30552  0.50047     C
C      0.09675  0.69452  0.50047     C
H       0.0983  0.04693  0.53745     H
H       0.0983  0.95307  0.53745     H
H      0.11583  0.21974  0.77983     H
H      0.11583  0.78026  0.77983     H
H      0.11608  0.35224  0.63331     H
H      0.11608  0.64776  0.63331     H
C      0.11675  0.02594  0.48331     C
C      0.11675  0.97414  0.48331     C
C      0.14286  0.23407  0.01337     C
C      0.14286  0.76593  0.01337     C
C      0.14625  0.29344  0.45037     C
C      0.14625  0.70656  0.45037     C
O      0.14707   0.2664  0.35425     O
O      0.14707   0.7336  0.35425     O
O      0.14773  0.25711  0.11545     O
O      0.14773  0.74289  0.11545     O
H      0.14776  0.11608  0.38331     H
H      0.14776  0.88392  0.38331     H
C      0.14884  0.04052  0.38888     C
C      0.14884  0.95952  0.38888     C
C      0.16252  0.08812  0.34397     C
C      0.16252  0.91192  0.34397     C
O      0.16642      0.0  0.32727     O
O      0.17594  0.20685  0.96365     O
O      0.17594  0.79315  0.96365     O
O      0.18397  0.31264  0.50485     O
O      0.18397  0.68736  0.50485     O
O      0.18736  0.18397  0.25485     O
O      0.18736  0.81603  0.25485     O
C      0.19452  0.09675  0.25047     C
C      0.19452  0.90325  0.25047     C
Al     0.19981  0.25401  0.23774    Al
Al     0.19981  0.74599  0.23774    Al
H      0.20087  0.45197  0.83511     H
H      0.20087  0.54803  0.83511     H
C      0.20656  0.14625  0.20037     C
C      0.20656  0.85375  0.20037     C
O      0.20685  0.32406  0.21365     O
O      0.20685  0.67594  0.21365     O
C      0.20974  0.47302  0.90317     C
C      0.20974  0.52702  0.90317     C
H      0.21059  0.06899  0.21367     H
H      0.21059  0.93101  0.21367     H
H      0.21974  0.38417  0.02983     H
H      0.21974  0.61583  0.02983     H
H      0.22351  0.23661   0.6235     H
H      0.22351  0.76339   0.6235     H
C      0.22474  0.45852  0.01927     C
C      0.22474  0.54152  0.01927     C
C      0.22672  0.41252  0.07977     C
C      0.22672  0.58752  0.07977     C
O      0.23322      0.5  0.09357     O
O       0.2336  0.14707  0.10425     O
O       0.2336  0.85293  0.10425     O
C      0.23407  0.35714  0.26337     C
C      0.23407  0.64286  0.26337     C
H      0.23661  0.27649   0.8735     H
H      0.23661  0.72351   0.8735     H
C      0.23752  0.40452  0.19977     C
C      0.23752  0.59552  0.19977     C
O      0.24289  0.14773  0.86545     O
O      0.24289  0.85227  0.86545     O
O      0.24352  0.25247  0.36725     O
O      0.24352  0.74753  0.36725     O
Al       0.246  0.19981  0.98774    Al
Al       0.246   0.8002  0.98774    Al
O      0.24753  0.24352  0.11725     O
O      0.24753  0.75648  0.11725     O
H      0.24827  0.43206  0.24779     H
H      0.24827  0.56794  0.24779     H
H      0.25173  0.06794  0.74779     H
H      0.25173  0.93206  0.74779     H
O      0.25247  0.25648  0.61725     O
O      0.25247  0.74352  0.61725     O
Al     0.25401   0.3002  0.48774    Al
Al     0.25401  0.69981  0.48774    Al
O      0.25648  0.24753  0.86725     O
O      0.25648  0.75247  0.86725     O
O      0.25711  0.35227  0.36545     O
O      0.25711  0.64773  0.36545     O
C      0.26252  0.09552  0.69977     C
C      0.26252  0.90452  0.69977     C
H      0.26339  0.22351   0.3735     H
H      0.26339  0.77649   0.3735     H
C      0.26593  0.14286  0.76337     C
C      0.26593  0.85714  0.76337     C
O       0.2664  0.35293  0.60425     O
O       0.2664  0.64707  0.60425     O
O      0.26682      0.0  0.59357     O
C      0.27332  0.08752  0.57977     C
C      0.27332  0.91252  0.57977     C
C      0.27534  0.04152  0.51927     C
C      0.27534  0.95852  0.51927     C
H      0.27649  0.26339   0.1235     H
H      0.27649  0.73661   0.1235     H
H      0.28026  0.11583  0.52983     H
H      0.28026  0.88417  0.52983     H
H      0.28941  0.43101  0.71367     H
H      0.28941  0.56899  0.71367     H
C      0.29034  0.02702  0.40317     C
C      0.29034  0.97302  0.40317     C
O      0.29315  0.17594  0.71365     O
O      0.29315  0.82406  0.71365     O
C      0.29344  0.35375  0.70037     C
C      0.29344  0.64625  0.70037     C
H      0.29913  0.04803  0.33511     H
H      0.29913  0.95197  0.33511     H
Al      0.3002    0.246  0.73774    Al
Al      0.3002  0.75402  0.73774    Al
C      0.30552  0.40325  0.75047     C
C      0.30552  0.59675  0.75047     C
O      0.31264  0.31603  0.75485     O
O      0.31264  0.68397  0.75485     O
O      0.31603  0.18736  0.00485     O
O      0.31603  0.81264  0.00485     O
O      0.32406  0.29315  0.46365     O
O      0.32406  0.70685  0.46365     O
O      0.33362      0.5  0.82727     O
C      0.33752  0.41192  0.84397     C
C      0.33752  0.58812  0.84397     C
C      0.35124  0.45952  0.88888     C
C      0.35124  0.54052  0.88888     C
H      0.35224  0.38392  0.88331     H
H      0.35224  0.61608  0.88331     H
O      0.35227  0.24289  0.61545     O
O      0.35227  0.75711  0.61545     O
O      0.35293   0.2336  0.85425     O
O      0.35293   0.7664  0.85425     O
C      0.35375  0.20656  0.95037     C
C      0.35375  0.79344  0.95037     C
C      0.35714  0.26593  0.51337     C
C      0.35714  0.73407  0.51337     C
C      0.38335  0.47414  0.98331     C
C      0.38335  0.52594  0.98331     C
H      0.38392  0.14776  0.13331     H
H      0.38392  0.85224  0.13331     H
H      0.38417  0.28026  0.27983     H
H      0.38417  0.71974  0.27983     H
H       0.4017  0.45307  0.03745     H
H       0.4017  0.54693  0.03745     H
C      0.40325  0.19452  0.00047     C
C      0.40325  0.80552  0.00047     C
C      0.40452  0.26252  0.44977     C
C      0.40452  0.73752  0.44977     C
C      0.41192  0.16252  0.09397     C
C      0.41192  0.83752  0.09397     C
C      0.41252  0.27332  0.32977     C
C      0.41252  0.72672  0.32977     C
H      0.43101  0.21059  0.96367     H
H      0.43101  0.78941  0.96367     H
H      0.43206  0.25173  0.49779     H
H      0.43206  0.74827  0.49779     H
H      0.45197  0.29913  0.08511     H
H      0.45197  0.70087  0.08511     H
H      0.45307   0.0983  0.28745     H
H      0.45307   0.9017  0.28745     H
C      0.45852  0.27534  0.26927     C
C      0.45852  0.72474  0.26927     C
C      0.45952  0.14884  0.13888     C
C      0.45952  0.85124  0.13888     C
C      0.47302  0.29034  0.15317     C
C      0.47302  0.70974  0.15317     C
C      0.47414  0.11675  0.23331     C
C      0.47414  0.88335  0.23331     C
O          0.5  0.16642  0.07727     O
O          0.5  0.26682  0.34357     O
O          0.5  0.73322  0.34357     O
O          0.5  0.83362  0.07727     O
C      0.52594  0.11675  0.23331     C
C      0.52594  0.88335  0.23331     C
C      0.52702  0.29034  0.15317     C
C      0.52702  0.70974  0.15317     C
C      0.54052  0.14884  0.13888     C
C      0.54052  0.85124  0.13888     C
C      0.54152  0.27534  0.26927     C
C      0.54152  0.72474  0.26927     C
H      0.54693   0.0983  0.28745     H
H      0.54693   0.9017  0.28745     H
H      0.54803  0.29913  0.08511     H
H      0.54803  0.70087  0.08511     H
H      0.56794  0.25173  0.49779     H
H      0.56794  0.74827  0.49779     H
H      0.56899  0.21059  0.96367     H
H      0.56899  0.78941  0.96367     H
C      0.58752  0.27332  0.32977     C
C      0.58752  0.72672  0.32977     C
C      0.58812  0.16252  0.09397     C
C      0.58812  0.83752  0.09397     C
C      0.59552  0.26252  0.44977     C
C      0.59552  0.73752  0.44977     C
C      0.59675  0.19452  0.00047     C
C      0.59675  0.80552  0.00047     C
H       0.5983  0.45307  0.03745     H
H       0.5983  0.54693  0.03745     H
H      0.61583  0.28026  0.27983     H
H      0.61583  0.71974  0.27983     H
H      0.61608  0.14776  0.13331     H
H      0.61608  0.85224  0.13331     H
C      0.61675  0.47414  0.98331     C
C      0.61675  0.52594  0.98331     C
C      0.64286  0.26593  0.51337     C
C      0.64286  0.73407  0.51337     C
C      0.64625  0.20656  0.95037     C
C      0.64625  0.79344  0.95037     C
O      0.64707   0.2336  0.85425     O
O      0.64707   0.7664  0.85425     O
O      0.64773  0.24289  0.61545     O
O      0.64773  0.75711  0.61545     O
H      0.64776  0.38392  0.88331     H
H      0.64776  0.61608  0.88331     H
C      0.64884  0.45952  0.88888     C
C      0.64884  0.54052  0.88888     C
C      0.66252  0.41192  0.84397     C
C      0.66252  0.58812  0.84397     C
O      0.66642      0.5  0.82727     O
O      0.67594  0.29315  0.46365     O
O      0.67594  0.70685  0.46365     O
O      0.68397  0.18736  0.00485     O
O      0.68397  0.81264  0.00485     O
O      0.68736  0.31603  0.75485     O
O      0.68736  0.68397  0.75485     O
C      0.69452  0.40325  0.75047     C
C      0.69452  0.59675  0.75047     C
Al     0.69981    0.246  0.73774    Al
Al     0.69981  0.75402  0.73774    Al
H      0.70087  0.04803  0.33511     H
H      0.70087  0.95197  0.33511     H
C      0.70656  0.35375  0.70037     C
C      0.70656  0.64625  0.70037     C
O      0.70685  0.17594  0.71365     O
O      0.70685  0.82406  0.71365     O
C      0.70974  0.02702  0.40317     C
C      0.70974  0.97302  0.40317     C
H      0.71059  0.43101  0.71367     H
H      0.71059  0.56899  0.71367     H
H      0.71974  0.11583  0.52983     H
H      0.71974  0.88417  0.52983     H
H      0.72351  0.26339   0.1235     H
H      0.72351  0.73661   0.1235     H
C      0.72474  0.04152  0.51927     C
C      0.72474  0.95852  0.51927     C
C      0.72672  0.08752  0.57977     C
C      0.72672  0.91252  0.57977     C
O      0.73322      0.0  0.59357     O
O       0.7336  0.35293  0.60425     O
O       0.7336  0.64707  0.60425     O
C      0.73407  0.14286  0.76337     C
C      0.73407  0.85714  0.76337     C
H      0.73661  0.22351   0.3735     H
H      0.73661  0.77649   0.3735     H
C      0.73752  0.09552  0.69977     C
C      0.73752  0.90452  0.69977     C
O      0.74289  0.35227  0.36545     O
O      0.74289  0.64773  0.36545     O
O      0.74352  0.24753  0.86725     O
O      0.74352  0.75247  0.86725     O
Al     0.74599   0.3002  0.48774    Al
Al     0.74599  0.69981  0.48774    Al
O      0.74753  0.25648  0.61725     O
O      0.74753  0.74352  0.61725     O
H      0.74827  0.06794  0.74779     H
H      0.74827  0.93206  0.74779     H
H      0.75173  0.43206  0.24779     H
H      0.75173  0.56794  0.24779     H
O      0.75247  0.24352  0.11725     O
O      0.75247  0.75648  0.11725     O
Al     0.75402  0.19981  0.98774    Al
Al     0.75402   0.8002  0.98774    Al
O      0.75648  0.25247  0.36725     O
O      0.75648  0.74753  0.36725     O
O      0.75711  0.14773  0.86545     O
O      0.75711  0.85227  0.86545     O
C      0.76252  0.40452  0.19977     C
C      0.76252  0.59552  0.19977     C
H      0.76339  0.27649   0.8735     H
H      0.76339  0.72351   0.8735     H
C      0.76593  0.35714  0.26337     C
C      0.76593  0.64286  0.26337     C
O       0.7664  0.14707  0.10425     O
O       0.7664  0.85293  0.10425     O
O      0.76682      0.5  0.09357     O
C      0.77332  0.41252  0.07977     C
C      0.77332  0.58752  0.07977     C
C      0.77534  0.45852  0.01927     C
C      0.77534  0.54152  0.01927     C
H      0.77649  0.23661   0.6235     H
H      0.77649  0.76339   0.6235     H
H      0.78026  0.38417  0.02983     H
H      0.78026  0.61583  0.02983     H
H      0.78941  0.06899  0.21367     H
H      0.78941  0.93101  0.21367     H
C      0.79034  0.47302  0.90317     C
C      0.79034  0.52702  0.90317     C
O      0.79315  0.32406  0.21365     O
O      0.79315  0.67594  0.21365     O
C      0.79344  0.14625  0.20037     C
C      0.79344  0.85375  0.20037     C
H      0.79913  0.45197  0.83511     H
H      0.79913  0.54803  0.83511     H
Al      0.8002  0.25401  0.23774    Al
Al      0.8002  0.74599  0.23774    Al
C      0.80552  0.09675  0.25047     C
C      0.80552  0.90325  0.25047     C
O      0.81264  0.18397  0.25485     O
O      0.81264  0.81603  0.25485     O
O      0.81603  0.31264  0.50485     O
O      0.81603  0.68736  0.50485     O
O      0.82406  0.20685  0.96365     O
O      0.82406  0.79315  0.96365     O
O      0.83362      0.0  0.32727     O
C      0.83752  0.08812  0.34397     C
C      0.83752  0.91192  0.34397     C
C      0.85124  0.04052  0.38888     C
C      0.85124  0.95952  0.38888     C
H      0.85224  0.11608  0.38331     H
H      0.85224  0.88392  0.38331     H
O      0.85227  0.25711  0.11545     O
O      0.85227  0.74289  0.11545     O
O      0.85293   0.2664  0.35425     O
O      0.85293   0.7336  0.35425     O
C      0.85375  0.29344  0.45037     C
C      0.85375  0.70656  0.45037     C
C      0.85714  0.23407  0.01337     C
C      0.85714  0.76593  0.01337     C
C      0.88335  0.02594  0.48331     C
C      0.88335  0.97414  0.48331     C
H      0.88392  0.35224  0.63331     H
H      0.88392  0.64776  0.63331     H
H      0.88417  0.21974  0.77983     H
H      0.88417  0.78026  0.77983     H
H       0.9017  0.04693  0.53745     H
H       0.9017  0.95307  0.53745     H
C      0.90325  0.30552  0.50047     C
C      0.90325  0.69452  0.50047     C
C      0.90452  0.23752  0.94977     C
C      0.90452  0.76252  0.94977     C
C      0.91192  0.33752  0.59397     C
C      0.91192  0.66252  0.59397     C
C      0.91252  0.22672  0.82977     C
C      0.91252  0.77332  0.82977     C
H      0.93101  0.28941  0.46367     H
H      0.93101  0.71059  0.46367     H
H      0.93206  0.24827  0.99779     H
H      0.93206  0.75173  0.99779     H
H      0.95197  0.20087  0.58511     H
H      0.95197  0.79913  0.58511     H
H      0.95307   0.4017  0.78745     H
H      0.95307   0.5983  0.78745     H
C      0.95852  0.22474  0.76927     C
C      0.95852  0.77534  0.76927     C
C      0.95952  0.35124  0.63888     C
C      0.95952  0.64884  0.63888     C
C      0.97302  0.20974  0.65317     C
C      0.97302  0.79034  0.65317     C
C      0.97414  0.38335  0.73331     C
C      0.97414  0.61675  0.73331     C
