data_I
_chemical_name_common  '/home/zhangsd/repos/MofS-CGCNN/CGCNN_MT/data/WS24v2_external_test/clean_cifs/val_22'
_cell_length_a 13.02710
_cell_length_b 13.91320
_cell_length_c 20.16630
_cell_angle_alpha 90.00000
_cell_angle_beta  90.00000
_cell_angle_gamma 90.00000
_space_group_name_H-M_alt      'P 1'


loop_
_space_group_symop_operation_xyz
  'x, y, z' 

loop_
_atom_site_label
_atom_site_fract_x
_atom_site_fract_y
_atom_site_fract_z
_atom_site_type_symbol
O      0.02908  0.04515   0.6624     O
O      0.02908  0.95485   0.1624     O
O      0.03738  0.24003  0.66448     O
O      0.03738  0.75997  0.16448     O
Cu     0.06231   0.1444  0.80248    Cu
Cu     0.06231   0.8556  0.30248    Cu
H      0.07164  0.12676  0.96696     H
H      0.07164  0.87324  0.46696     H
C      0.10774  0.01797  0.69292     C
C      0.10774  0.98203  0.19292     C
C       0.1149  0.26689  0.69558     C
C       0.1149  0.73311  0.19558     C
H      0.11965   0.0259  0.06568     H
H      0.11965   0.9741  0.56568     H
O      0.13481  0.04518  0.74925     O
O      0.13481  0.95482  0.24925     O
O      0.13786  0.24447    0.754     O
O      0.13786  0.75553    0.254     O
C      0.13788  0.13265  0.95017     C
C      0.13788  0.86745  0.45017     C
H      0.15096  0.28138  0.56786     H
H      0.15096  0.71862  0.06786     H
N      0.16068  0.85855  0.38747     N
N      0.16297  0.14814  0.88567     N
C      0.16724  0.06211  0.08929     C
C      0.16724  0.93789  0.58929     C
C      0.17577  0.05263  0.15772     C
C      0.17577  0.94737  0.65772     C
C      0.18931  0.33008  0.65917     C
C      0.18931  0.66992  0.15917     C
N      0.19347  0.35725  0.44674     N
C      0.19569  0.32161   0.5907     C
C      0.19569  0.67839   0.0907     C
H      0.19668  0.34567  0.34907     H
N      0.20785  0.69185  0.95216     N
H      0.21215  0.72197  0.85635     H
N      0.21958  0.14284  0.98694     N
N      0.22279  0.86684  0.48634     N
C      0.23096   0.1265  0.05703     C
C      0.23096   0.8735  0.55703     C
C      0.23527  0.35255  0.38764     C
C      0.24567  0.69295  0.89176     C
C       0.2465  0.10798  0.19276     C
C       0.2465  0.89202  0.69276     C
H      0.24961  0.39684  0.73868     H
H      0.24961  0.60316  0.23868     H
H      0.25039  0.10316  0.23868     H
H      0.25039  0.89684  0.73868     H
C       0.2535  0.39202  0.69276     C
C       0.2535  0.60798  0.19276     C
C      0.26487  0.14755  0.88764     C
C      0.26487  0.85255  0.38764     C
C      0.26904   0.3735  0.55703     C
C      0.26904   0.6265  0.05703     C
N      0.27739  0.36684  0.48634     N
N      0.27739  0.63324  0.98626     N
H      0.30332  0.15433  0.84907     H
H      0.30332  0.84567  0.34907     H
C      0.30431  0.17839   0.0907     C
C      0.30431  0.82161   0.5907     C
N      0.30667  0.14285  0.94674     N
N      0.30667  0.85725  0.44674     N
C      0.31069  0.16992  0.15917     C
C      0.31069  0.83008  0.65917     C
C      0.32423  0.44737  0.65772     C
C      0.32423  0.55263  0.15772     C
C      0.33276  0.43789  0.58929     C
C      0.33276  0.56211  0.08929     C
N      0.33717  0.64814  0.88553     N
N      0.33948  0.35855  0.38747     N
H      0.34904  0.21862  0.06786     H
H      0.34904  0.78138  0.56786     H
C      0.35667  0.61784  0.94585     C
O      0.36214  0.25553    0.254     O
O      0.36214  0.74447    0.754     O
C      0.36228  0.36745  0.45017     C
O      0.36519  0.45482  0.24925     O
O      0.36519  0.54518  0.74925     O
H      0.38035   0.4741  0.56568     H
H      0.38035   0.5259  0.06568     H
C       0.3851  0.23311  0.19558     C
C       0.3851  0.76689  0.69558     C
C      0.39226  0.48203  0.19292     C
C      0.39226  0.51797  0.69292     C
H      0.41488  0.58375   0.9583     H
H      0.42836  0.37324  0.46696     H
Cu     0.43769   0.3556  0.30248    Cu
Cu     0.43769   0.6444  0.80248    Cu
O      0.46262  0.25997  0.16448     O
O      0.46262  0.74003  0.66448     O
O      0.47092  0.45485   0.1624     O
O      0.47092  0.54515   0.6624     O
O      0.52908  0.45485  0.33762     O
O      0.52908  0.54515  0.83762     O
O      0.53738  0.25997  0.33554     O
O      0.53738  0.74003  0.83552     O
Cu     0.56231   0.3556  0.19752    Cu
Cu     0.56231   0.6444  0.69752    Cu
H      0.58512  0.41625   0.0417     H
H      0.58512  0.58375   0.5417     H
C      0.60774  0.48203   0.3071     C
C      0.60774  0.51797   0.8071     C
C       0.6149  0.23311  0.30444     C
C       0.6149  0.76689  0.80442     C
H      0.61965   0.4741  0.93432     H
H      0.61965   0.5259  0.43432     H
O      0.63481  0.45482  0.25077     O
O      0.63481  0.54518  0.75077     O
O      0.63786  0.25553  0.24602     O
O      0.63786  0.74447    0.746     O
C      0.64347  0.38224  0.05415     C
C      0.64347  0.61784  0.55415     C
H      0.65096  0.21862  0.43214     H
H      0.65096  0.78138  0.93214     H
N      0.66068  0.35855  0.11267     N
N      0.66297  0.64814  0.61447     N
C      0.66724  0.43789  0.91071     C
C      0.66724  0.56211  0.41071     C
C      0.67577  0.44737  0.84228     C
C      0.67577  0.55263  0.34228     C
C      0.68931  0.16992  0.34083     C
C      0.68931  0.83008  0.84083     C
C      0.69569  0.17839   0.4093     C
C      0.69569  0.82161   0.9093     C
N      0.70785  0.19185  0.54784     N
N      0.70785  0.80825  0.04784     N
H      0.71215  0.22197  0.64365     H
H      0.71215  0.77803  0.14365     H
N      0.71958  0.35724  0.01314     N
N      0.72279  0.63324  0.51374     N
C      0.73096   0.3735  0.94297     C
C      0.73096   0.6265  0.44297     C
C      0.74567  0.19295  0.60824     C
C      0.74567  0.80715  0.10824     C
C       0.7465  0.39202  0.80726     C
C       0.7465  0.60798  0.30726     C
H      0.74961  0.10316  0.26132     H
H      0.74961  0.89684  0.76132     H
H      0.75039  0.39684  0.76132     H
H      0.75039  0.60316  0.26132     H
C       0.7535  0.10798  0.30726     C
C       0.7535  0.89202  0.80724     C
C      0.75447  0.30715  0.10824     C
C      0.75447  0.69295  0.60824     C
C      0.76904   0.1265  0.44297     C
C      0.76904   0.8735  0.94297     C
N      0.78058  0.14284  0.51314     N
N      0.78058  0.85724  0.01314     N
H      0.78785  0.27803  0.14365     H
H      0.78785  0.72197  0.64365     H
N      0.79225  0.30825  0.04784     N
N      0.79225  0.69185  0.54784     N
C      0.80431  0.32161   0.9093     C
C      0.80431  0.67839   0.4093     C
C      0.81069  0.33008  0.84083     C
C      0.81069  0.66992  0.34083     C
C      0.82423  0.05263  0.34228     C
C      0.82423  0.94737  0.84228     C
C      0.83276  0.06211  0.41071     C
C      0.83276  0.93789  0.91071     C
N      0.83717  0.14814  0.61447     N
N      0.83717  0.85194  0.11447     N
H      0.84904  0.28138  0.93214     H
H      0.84904  0.71862  0.43214     H
C      0.85667  0.11784  0.55415     C
C      0.85667  0.88224  0.05415     C
O      0.86214  0.24447  0.74602     O
O      0.86214  0.75553  0.24602     O
O      0.86519  0.04518  0.75077     O
O      0.86519  0.95482  0.25077     O
H      0.88035   0.0259  0.43432     H
H      0.88035   0.9741  0.93432     H
C       0.8851  0.26689  0.80444     C
C       0.8851  0.73311  0.30444     C
C      0.89226  0.01797  0.80708     C
C      0.89226  0.98203   0.3071     C
H      0.91488  0.08375   0.5417     H
H      0.91488  0.91625   0.0417     H
Cu     0.93769   0.1444  0.69752    Cu
Cu     0.93769   0.8556  0.19752    Cu
O      0.96262  0.24003  0.83554     O
O      0.96262  0.75997  0.33554     O
O      0.97092  0.04515  0.83762     O
O      0.97092  0.95485  0.33762     O
