data_I
_chemical_name_common  '/home/zhangsd/repos/MofS-CGCNN/CGCNN_MT/data/WS24v2_external_test/clean_cifs/val_48'
_cell_length_a 12.20020
_cell_length_b  6.78301
_cell_length_c 10.70720
_cell_angle_alpha 90.00000
_cell_angle_beta  90.00000
_cell_angle_gamma 90.00000
_space_group_name_H-M_alt      'P 1'


loop_
_space_group_symop_operation_xyz
  'x, y, z' 

loop_
_atom_site_label
_atom_site_fract_x
_atom_site_fract_y
_atom_site_fract_z
_atom_site_type_symbol
Co         0.0      0.5  0.77944    Co
N      0.09772  0.64724  0.90782     N
H      0.10551  0.89662  0.81713     H
H      0.10967  0.42192  0.02549     H
O      0.11262  0.28524  0.72582     O
O      0.12002  0.57054  0.62862     O
C      0.13442  0.82885  0.88514     C
C      0.13694  0.54687  0.00764     C
C      0.15472  0.39715  0.64224     C
H       0.2023  0.66601  0.46909     H
C      0.21494  0.92384  0.95864     C
C      0.21704  0.62785  0.08324     C
H      0.21847  0.16545  0.86323     H
C      0.24252  0.31604  0.56034     C
H      0.24418  0.55543  0.15019     H
N      0.24774  0.10745  0.92644     N
N      0.25234  0.60745  0.42644     N
H      0.25582  0.05543  0.65019     H
C      0.25752  0.81604  0.06034     C
H      0.28153  0.66545  0.36323     H
C      0.28304  0.12785  0.58324     C
C      0.28514  0.42384  0.45864     C
H       0.2977  0.16601  0.96909     H
C      0.34532  0.89715  0.14224     C
C      0.36314  0.04687  0.50764     C
C      0.36562  0.32885  0.38514     C
O      0.38002  0.07054  0.12862     O
O      0.38738  0.78524  0.22582     O
H      0.39033  0.92192  0.52549     H
H      0.39449  0.39662  0.31713     H
N      0.40232  0.14724  0.40782     N
Co         0.5      0.0  0.27944    Co
N      0.59772  0.85284  0.40782     N
H      0.60551  0.60338  0.31713     H
H      0.60967  0.07808  0.52549     H
O      0.61262  0.21484  0.22582     O
O      0.62002  0.92954  0.12862     O
C      0.63442  0.67125  0.38514     C
C      0.63694  0.95327  0.50764     C
C      0.65472  0.10295  0.14224     C
H       0.7023  0.83399  0.96909     H
C      0.71494  0.57624  0.45864     C
C      0.71704  0.87225  0.58324     C
H      0.71847  0.33455  0.36323     H
C      0.74252  0.18404  0.06034     C
H      0.74418  0.94457  0.65019     H
N      0.74774  0.39265  0.42644     N
N      0.75234  0.89265  0.92644     N
H      0.75582  0.44457  0.15019     H
C      0.75752  0.68404  0.56034     C
H      0.78153  0.83455  0.86323     H
C      0.78304  0.37225  0.08324     C
C      0.78514  0.07624  0.95864     C
H       0.7977  0.33399  0.46909     H
C      0.84532  0.60295  0.64224     C
C      0.86314  0.45327  0.00764     C
C      0.86562  0.17125  0.88514     C
O      0.88002  0.42954  0.62862     O
O      0.88738  0.71484  0.72582     O
H      0.89033  0.57808  0.02549     H
H      0.89449  0.10338  0.81713     H
N      0.90232  0.35284  0.90782     N
