data_I
_chemical_name_common  '/home/zhangsd/repos/MofS-CGCNN/CGCNN_MT/data/WS24v2_external_test/clean_cifs/val_14'
_cell_length_a 15.15430
_cell_length_b 25.42730
_cell_length_c 19.92830
_cell_angle_alpha 90.00000
_cell_angle_beta  104.36600
_cell_angle_gamma 90.00000
_space_group_name_H-M_alt      'P 1'


loop_
_space_group_symop_operation_xyz
  'x, y, z' 

loop_
_atom_site_label
_atom_site_fract_x
_atom_site_fract_y
_atom_site_fract_z
_atom_site_type_symbol
C          0.0  0.01954     0.25     C
C          0.0  0.07934     0.25     C
C          0.0  0.17924     0.75     C
C          0.0  0.23894     0.75     C
C          0.0  0.76114     0.25     C
C          0.0  0.82084     0.25     C
C          0.0  0.92066     0.75     C
C          0.0  0.98046     0.75     C
H      0.00378  0.07429  0.95514     H
H      0.00378  0.92571  0.45514     H
O      0.02336  0.56664  0.93602     O
O      0.02344  0.43336  0.43602     O
H      0.02421  0.09358  0.20623     H
H       0.0257  0.74682  0.30277     H
O      0.02654  0.00336  0.70212     O
O      0.02654  0.99664  0.20212     O
C      0.02674  0.40562  0.03724     C
C      0.02674  0.59442  0.53724     C
H      0.02823  0.32981  0.45185     H
H      0.02823   0.6702  0.95185     H
H      0.02985  0.24882  0.14436     H
H      0.02985  0.75118  0.64436     H
C      0.03215  0.75114  0.83744     C
C      0.03225  0.24894  0.33744     C
H      0.03311  0.28358  0.30551     H
H      0.03311  0.71642  0.80551     H
H      0.03433  0.21365  0.30681     H
H      0.03433  0.78635  0.80681     H
H      0.03781   0.0099  0.56929     H
H      0.03781   0.9901  0.06929     H
C      0.03804  0.34912  0.06034     C
C      0.03804  0.65092  0.56034     C
Cu     0.04292  0.07977  0.70181    Cu
Cu     0.04292  0.92023  0.20181    Cu
H      0.04348  0.74682  0.21785     H
H      0.04472  0.09358  0.29805     H
O      0.04724  0.15705  0.71512     O
O      0.04724  0.84295  0.21512     O
H      0.04886  0.34568  0.58226     H
H      0.04886  0.65432  0.08226     H
O      0.04944  0.47111  0.61472     O
O      0.04944  0.52889  0.11472     O
Cu     0.05536  0.49319   0.9598    Cu
Cu     0.05536  0.50681   0.4598    Cu
C      0.05684  0.04962  0.55794     C
C      0.05684  0.95042  0.05794     C
H      0.06532  0.29191  0.64112     H
H      0.06532  0.70809  0.14112     H
H      0.06616  0.12458  0.46935     H
H      0.06616  0.87542  0.96935     H
H      0.06755  0.34753  0.11596     H
H      0.06755  0.65247  0.61596     H
O      0.06788  0.42042  0.99252     O
O      0.06792  0.57958  0.49252     O
H      0.06893  0.90642  0.75428     H
H      0.06918  0.25318  0.77062     H
O      0.07852  0.09002  0.86202     O
O      0.07852  0.90998  0.36202     O
H      0.08285  0.32909   0.0335     H
H      0.08285  0.67091   0.5335     H
H      0.09407  0.15016  0.59389     H
H      0.09407  0.84984  0.09389     H
N      0.09564  0.04732  0.49792     N
N      0.09564  0.95272  0.99788     N
C      0.09954  0.32092  0.61624     C
C      0.09954  0.67912  0.11624     C
C      0.11326  0.75022  0.89824     C
C      0.11334  0.24982  0.39824     C
N      0.11954  0.07118  0.62082     N
N      0.11954  0.92882  0.12082     N
O      0.12086  0.78792  0.93942     O
O      0.12094  0.21212  0.43942     O
C      0.12564  0.09912  0.48414     C
C      0.12564  0.90092  0.98406     C
C      0.12774  0.47152  0.60304     C
C      0.12774  0.52852  0.10304     C
H      0.14163  0.03093  0.01536     H
H      0.14163  0.96907  0.51536     H
H      0.14384  0.34517  0.65556     H
H      0.14384  0.65483  0.15556     H
O      0.14418  0.51633  0.04612     O
O      0.14422  0.48367  0.54612     O
C      0.14944  0.08702  0.84054     C
C      0.14944  0.91302  0.34054     C
C      0.15174  0.12322  0.60454     C
C      0.15174  0.87682  0.10454     C
O      0.15212  0.07567  0.77912     O
O      0.15212  0.92433  0.27912     O
O      0.15474  0.24385  0.57412     O
O      0.15474  0.75615  0.07412     O
C      0.15544  0.29322  0.57434     C
C      0.15544  0.70682  0.07434     C
O      0.15788  0.49135  0.90082     O
O      0.15792  0.50865  0.40082     O
H      0.15825  0.09632  0.44132     H
H      0.15825  0.90368  0.94132     H
O      0.16656  0.71172  0.90412     O
O      0.16664  0.28828  0.40412     O
C      0.16834  0.00752  0.50644     C
C      0.16834  0.99252  0.00644     C
H      0.17357  0.00328  0.15999     H
H      0.17357  0.99672  0.65999     H
H      0.17375  0.38868  0.39507     H
H      0.17375  0.61132  0.89507     H
N      0.19164  0.12327  0.54472     N
N      0.19164  0.87673  0.04472     N
H      0.19173  0.40504   0.4842     H
H      0.19173  0.59496  0.98421     H
H      0.19374  0.00605   0.4599     H
H      0.19374  0.99395   0.9599     H
H      0.19744  0.41601  0.67841     H
H      0.19744  0.58399  0.17841     H
C      0.19864  0.03462  0.64714     C
C      0.19864  0.96542  0.14714     C
O      0.19946  0.67871  0.04202     O
O      0.19954  0.32129  0.54202     O
H      0.20309  0.13693   0.6495     H
H      0.20309  0.86307   0.1495     H
C      0.20734  0.45604  0.66214     C
C      0.20734  0.54404  0.16214     C
H      0.21161   0.4828  0.70542     H
H      0.21161   0.5172  0.20542     H
H      0.21808  0.43691  0.10399     H
H      0.21808  0.56309  0.60399     H
C      0.22086  0.59352  0.93954     C
C      0.22094  0.40652  0.43954     C
Cu     0.22502  0.20481  0.51922    Cu
Cu     0.22502  0.79519  0.01922    Cu
H      0.22634  0.10685  0.94183     H
H      0.22634  0.89315  0.44183     H
H      0.22806  0.36907  0.12632     H
H      0.22806  0.63093  0.62632     H
H       0.2299  0.04195  0.35502     H
H       0.2299  0.95805  0.85502     H
C      0.23854  0.09774  0.89154     C
C      0.23854  0.90234  0.39154     C
P      0.24031   0.5258  0.91993     P
P      0.24033  0.47422  0.41993     P
H      0.24417  0.05139  0.69312     H
H      0.24417  0.94861  0.19312     H
H      0.25583  0.44861  0.30688     H
H      0.25583  0.55139  0.80688     H
P      0.25969   0.0258  0.58009     P
P      0.25969  0.97422  0.08009     P
C      0.26146  0.59774  0.60854     C
C      0.26154  0.40234  0.10854     C
H       0.2701  0.45805  0.64498     H
H       0.2701  0.54195  0.14498     H
H      0.27194  0.13093  0.87368     H
H      0.27194  0.86907  0.37368     H
H      0.27366  0.39315  0.05817     H
H      0.27366  0.60685  0.55817     H
Cu     0.27498  0.29519  0.48078    Cu
Cu     0.27498  0.70481  0.98078    Cu
C      0.27914  0.09352  0.56054     C
C      0.27914  0.90652  0.06054     C
H      0.28192  0.06309  0.89601     H
H      0.28192  0.93691  0.39601     H
H      0.28839   0.0172  0.29458     H
H      0.28839   0.9828  0.79458     H
C      0.29266  0.04404  0.33794     C
C      0.29266  0.95596  0.83794     C
H      0.29691  0.36307   0.3505     H
H      0.29691  0.63693   0.8505     H
O      0.30046  0.82129  0.95802     O
O      0.30054  0.17871  0.45802     O
C      0.30136  0.53462  0.85294     C
C      0.30144  0.46542  0.35294     C
H      0.30256  0.08399   0.3216     H
H      0.30256  0.91601  0.82159     H
H      0.30626  0.49395   0.5401     H
H      0.30626  0.50605   0.0401     H
H      0.30827  0.09496   0.5158     H
H      0.30827  0.90504   0.0158     H
N      0.30836  0.62327  0.95532     N
N      0.30844  0.37673  0.45532     N
H      0.32625  0.11132  0.60493     H
H      0.32625  0.88868  0.10493     H
H      0.32643  0.49672  0.84001     H
H      0.32643  0.50328  0.34001     H
C      0.33166  0.50752  0.99364     C
C      0.33174  0.49252  0.49364     C
O      0.33344  0.21172  0.59592     O
O      0.33344  0.78828  0.09592     O
H      0.34175  0.40368  0.55868     H
H      0.34175  0.59632  0.05868     H
O      0.34212  0.00865  0.09922     O
O      0.34212  0.99135  0.59922     O
C      0.34456  0.79322  0.92574     C
C      0.34464  0.20682  0.42574     C
O      0.34526  0.74385  0.92592     O
O      0.34534  0.25615  0.42592     O
O      0.34788  0.57567  0.72092     O
O      0.34792  0.42433  0.22092     O
C      0.34826  0.62322  0.89554     C
C      0.34834  0.37682  0.39554     C
C      0.35056  0.58702  0.65954     C
C      0.35064  0.41302  0.15954     C
O      0.35578  0.01633  0.45392     O
O      0.35578  0.98367  0.95392     O
H      0.35616  0.15483  0.34444     H
H      0.35616  0.84517  0.84444     H
H      0.35837  0.46907  0.98464     H
H      0.35837  0.53093  0.48464     H
C      0.37226  0.02852  0.39704     C
C      0.37226  0.97148  0.89704     C
C      0.37436  0.59912  0.01594     C
C      0.37444  0.40092  0.51594     C
O      0.37906  0.71212  0.06062     O
O      0.37914  0.28792  0.56062     O
N      0.38046  0.57118  0.87922     N
N      0.38054  0.42882  0.37922     N
C      0.38674  0.25022  0.60184     C
C      0.38674  0.74982  0.10184     C
C      0.40046  0.82092  0.88384     C
C      0.40054  0.17912  0.38384     C
N      0.40436  0.54732  0.00212     N
N      0.40444  0.45272  0.50212     N
H      0.40593  0.34984  0.40611     H
H      0.40593  0.65016  0.90611     H
H      0.41715  0.17091   0.9665     H
H      0.41715  0.82909   0.4665     H
O      0.42148  0.59002  0.63802     O
O      0.42152  0.40998  0.13802     O
H      0.43082  0.24682  0.22939     H
H      0.43107  0.59358  0.24571     H
O      0.43208  0.07958  0.00752     O
O      0.43212  0.92042  0.50752     O
H      0.43244  0.15247  0.88404     H
H      0.43245  0.84753  0.38404     H
H      0.43384  0.37542  0.53065     H
H      0.43384  0.62458  0.03065     H
H      0.43468  0.20809  0.35888     H
H      0.43468  0.79191  0.85888     H
C      0.44316  0.54962  0.94214     C
C      0.44324  0.45042  0.44214     C
Cu     0.44464  0.00681   0.0402    Cu
Cu     0.44464  0.99319   0.5402    Cu
O      0.45056  0.02889  0.38532     O
O      0.45056  0.97111  0.88532     O
H      0.45114  0.15432  0.41774     H
H      0.45114  0.84568  0.91774     H
O      0.45276  0.65705  0.78492     O
O      0.45284  0.34295  0.28492     O
H      0.45528  0.40642  0.70195     H
H      0.45652  0.75318  0.78215     H
Cu     0.45708  0.42023  0.29819    Cu
Cu     0.45708  0.57977  0.79819    Cu
C      0.46196  0.15092  0.93974     C
C      0.46204  0.84908  0.43974     C
H      0.46219   0.4901  0.43071     H
H      0.46219   0.5099   0.9307     H
H      0.46567  0.28635  0.69319     H
H      0.46567  0.71365  0.19319     H
H      0.46689  0.21642  0.69449     H
H      0.46689  0.78358  0.19449     H
C      0.46785  0.25114  0.66264     C
C      0.46785  0.74894  0.16264     C
H      0.47015  0.25118  0.85564     H
H      0.47015  0.74882  0.35564     H
H      0.47177  0.17019  0.54815     H
H      0.47177  0.82981  0.04815     H
C      0.47326  0.09442  0.96284     C
C      0.47334  0.90558  0.46284     C
O      0.47346  0.50336  0.79792     O
O      0.47354  0.49664  0.29792     O
H       0.4743  0.75318  0.69723     H
H      0.47579  0.40642  0.79377     H
O      0.47656  0.06664  0.56402     O
O      0.47656  0.93336  0.06402     O
H      0.49622  0.42571  0.04486     H
H      0.49622  0.57429  0.54486     H
C          0.5  0.26114     0.25     C
C          0.5  0.32084     0.25     C
C          0.5  0.42074     0.75     C
C          0.5  0.48054     0.75     C
C          0.5  0.51954     0.25     C
C          0.5  0.57934     0.25     C
C          0.5  0.67924     0.75     C
C          0.5  0.73894     0.75     C
H      0.50378  0.42571  0.45514     H
H      0.50378  0.57429  0.95514     H
O      0.52336  0.06664  0.93602     O
O      0.52336  0.93336  0.43602     O
H      0.52421  0.59358  0.20623     H
H       0.5257  0.24682  0.30277     H
O      0.52646  0.50336  0.70212     O
O      0.52654  0.49664  0.20212     O
C      0.52666  0.09442  0.53724     C
C      0.52666  0.90558  0.03724     C
H      0.52823   0.1702  0.95185     H
H      0.52823  0.82981  0.45185     H
H      0.52985  0.25118  0.64436     H
H      0.52985  0.74882  0.14436     H
C      0.53215  0.25114  0.83744     C
C      0.53215  0.74894  0.33744     C
H      0.53311  0.21642  0.80551     H
H      0.53311  0.78358  0.30551     H
H      0.53433  0.28635  0.80681     H
H      0.53433  0.71365  0.30681     H
H      0.53781   0.4901  0.06929     H
H      0.53781   0.5099  0.56929     H
C      0.53796  0.15092  0.56034     C
C      0.53796  0.84908  0.06034     C
Cu     0.54292  0.42023  0.20181    Cu
Cu     0.54292  0.57977  0.70181    Cu
H      0.54348  0.24682  0.21785     H
H      0.54472  0.59358  0.29805     H
O      0.54716  0.65705  0.71512     O
O      0.54724  0.34295  0.21512     O
H      0.54886  0.15432  0.08226     H
H      0.54886  0.84568  0.58226     H
O      0.54944  0.02889  0.11472     O
O      0.54944  0.97111  0.61472     O
Cu     0.55536  0.00681   0.4598    Cu
Cu     0.55536  0.99319   0.9598    Cu
C      0.55676  0.54962  0.55794     C
C      0.55684  0.45042  0.05794     C
H      0.56532  0.20809  0.14112     H
H      0.56532  0.79191  0.64112     H
H      0.56616  0.37542  0.96935     H
H      0.56616  0.62458  0.46935     H
H      0.56756  0.15247  0.61596     H
H      0.56756  0.84753  0.11596     H
O      0.56788  0.07958  0.49252     O
O      0.56788  0.92042  0.99252     O
H      0.56893  0.40642  0.75428     H
H      0.56918  0.75318  0.77062     H
O      0.57848  0.59002  0.86202     O
O      0.57852  0.40998  0.36202     O
H      0.58285  0.17091   0.5335     H
H      0.58285  0.82909   0.0335     H
H      0.59407  0.34984  0.09389     H
H      0.59407  0.65016  0.59389     H
N      0.59556  0.54732  0.49792     N
N      0.59564  0.45272  0.99788     N
C      0.59946  0.82092  0.61624     C
C      0.59954  0.17912  0.11624     C
C      0.61326  0.25022  0.89824     C
C      0.61326  0.74982  0.39824     C
N      0.61946  0.57118  0.62082     N
N      0.61954  0.42882  0.12082     N
O      0.62086  0.28792  0.93942     O
O      0.62086  0.71212  0.43942     O
C      0.62556  0.59912  0.48414     C
C      0.62564  0.40092  0.98406     C
C      0.62774  0.02852  0.10304     C
C      0.62774  0.97148  0.60304     C
H      0.64163  0.46907  0.51536     H
H      0.64163  0.53093  0.01536     H
H      0.64384  0.15483  0.15556     H
H      0.64384  0.84517  0.65556     H
O      0.64418  0.01633  0.04612     O
O      0.64418  0.98367  0.54612     O
C      0.64936  0.58702  0.84054     C
C      0.64944  0.41302  0.34054     C
C      0.65166  0.62322  0.60454     C
C      0.65174  0.37682  0.10454     C
O      0.65208  0.57567  0.77912     O
O      0.65212  0.42433  0.27912     O
O      0.65466  0.74385  0.57412     O
O      0.65474  0.25615  0.07412     O
C      0.65536  0.79322  0.57434     C
C      0.65544  0.20682  0.07434     C
O      0.65788  0.00865  0.40082     O
O      0.65788  0.99135  0.90082     O
H      0.65825  0.40368  0.94132     H
H      0.65825  0.59632  0.44132     H
O      0.66656  0.21172  0.90412     O
O      0.66656  0.78828  0.40412     O
C      0.66826  0.50752  0.50644     C
C      0.66834  0.49252  0.00644     C
H      0.67357  0.49672  0.65999     H
H      0.67357  0.50328  0.15999     H
H      0.67375  0.11132  0.89507     H
H      0.67375  0.88868  0.39507     H
N      0.69156  0.62327  0.54472     N
N      0.69164  0.37673  0.04472     N
H      0.69173  0.09496  0.98421     H
H      0.69173  0.90504   0.4842     H
H      0.69374  0.49395   0.9599     H
H      0.69374  0.50605   0.4599     H
H      0.69744  0.08399  0.17841     H
H      0.69744  0.91601  0.67841     H
C      0.69856  0.53462  0.64714     C
C      0.69864  0.46542  0.14714     C
O      0.69946  0.17871  0.04202     O
O      0.69946  0.82129  0.54202     O
H      0.70309  0.36307   0.1495     H
H      0.70309  0.63693   0.6495     H
C      0.70734  0.04404  0.16214     C
C      0.70734  0.95596  0.66214     C
H      0.71161   0.0172  0.20542     H
H      0.71161   0.9828  0.70542     H
H      0.71808  0.06309  0.60399     H
H      0.71808  0.93691  0.10399     H
C      0.72086  0.09352  0.93954     C
C      0.72086  0.90652  0.43954     C
Cu     0.72502  0.29519  0.01922    Cu
Cu     0.72502  0.70481  0.51922    Cu
H      0.72634  0.39315  0.44183     H
H      0.72634  0.60685  0.94183     H
H      0.72806  0.13093  0.62632     H
H      0.72806  0.86907  0.12632     H
H       0.7299  0.45805  0.85502     H
H       0.7299  0.54195  0.35502     H
C      0.73846  0.59774  0.89154     C
C      0.73854  0.40234  0.39154     C
P      0.74031   0.0258  0.91993     P
P      0.74031  0.97422  0.41993     P
H      0.74417  0.44861  0.19312     H
H      0.74417  0.55139  0.69312     H
H      0.75583  0.05139  0.80688     H
H      0.75583  0.94861  0.30688     H
P      0.75967   0.5258  0.58009     P
P      0.75969  0.47422  0.08009     P
C      0.76146  0.09774  0.60854     C
C      0.76146  0.90234  0.10854     C
H       0.7701  0.04195  0.14498     H
H       0.7701  0.95805  0.64498     H
H      0.77194  0.36907  0.37368     H
H      0.77194  0.63093  0.87368     H
H      0.77366  0.10685  0.55817     H
H      0.77366  0.89315  0.05817     H
Cu     0.77498  0.20481  0.98078    Cu
Cu     0.77498  0.79519  0.48078    Cu
C      0.77906  0.59352  0.56054     C
C      0.77914  0.40652  0.06054     C
H      0.78192  0.43691  0.39601     H
H      0.78192  0.56309  0.89601     H
H      0.78839   0.4828  0.79458     H
H      0.78839   0.5172  0.29458     H
C      0.79266  0.54404  0.33794     C
C      0.79274  0.45604  0.83786     C
H      0.79691  0.13693   0.8505     H
H      0.79691  0.86307   0.3505     H
O      0.80046  0.32129  0.95802     O
O      0.80046  0.67871  0.45802     O
C      0.80136  0.03462  0.85294     C
C      0.80136  0.96542  0.35294     C
H      0.80256  0.41601  0.82159     H
H      0.80256  0.58399   0.3216     H
H      0.80626  0.00605   0.0401     H
H      0.80626  0.99395   0.5401     H
H      0.80827  0.40504   0.0158     H
H      0.80827  0.59496   0.5158     H
N      0.80836  0.12327  0.95532     N
N      0.80836  0.87673  0.45532     N
H      0.82625  0.38868  0.10493     H
H      0.82625  0.61132  0.60493     H
H      0.82643  0.00328  0.34001     H
H      0.82643  0.99672  0.84001     H
C      0.83166  0.00752  0.99364     C
C      0.83166  0.99252  0.49364     C
O      0.83336  0.71172  0.59592     O
O      0.83344  0.28828  0.09592     O
H      0.84175  0.09632  0.05868     H
H      0.84175  0.90368  0.55868     H
O      0.84208  0.49135  0.59922     O
O      0.84212  0.50865  0.09922     O
C      0.84456  0.29322  0.92574     C
C      0.84456  0.70682  0.42574     C
O      0.84526  0.24385  0.92592     O
O      0.84526  0.75615  0.42592     O
O      0.84788  0.07567  0.72092     O
O      0.84788  0.92433  0.22092     O
C      0.84826  0.12322  0.89554     C
C      0.84826  0.87682  0.39554     C
C      0.85056  0.08702  0.65954     C
C      0.85056  0.91302  0.15954     C
O      0.85578  0.51633  0.45392     O
O      0.85582  0.48367  0.95388     O
H      0.85616  0.34517  0.84444     H
H      0.85616  0.65483  0.34444     H
H      0.85837  0.03093  0.48464     H
H      0.85837  0.96907  0.98464     H
C      0.87226  0.52852  0.39704     C
C      0.87234  0.47152  0.89696     C
C      0.87436  0.09912  0.01594     C
C      0.87436  0.90092  0.51594     C
O      0.87906  0.21212  0.06062     O
O      0.87906  0.78792  0.56062     O
N      0.88046  0.07118  0.87922     N
N      0.88046  0.92882  0.37922     N
C      0.88666  0.75022  0.60184     C
C      0.88674  0.24982  0.10184     C
C      0.90046  0.32092  0.88384     C
C      0.90046  0.67912  0.38384     C
N      0.90436  0.04732  0.00212     N
N      0.90436  0.95272  0.50212     N
H      0.90593  0.15016  0.90611     H
H      0.90593  0.84984  0.40611     H
H      0.91715  0.32909   0.4665     H
H      0.91715  0.67091   0.9665     H
O      0.92148  0.09002  0.63802     O
O      0.92148  0.90998  0.13802     O
H      0.93082  0.74682  0.22939     H
H      0.93107  0.09358  0.24571     H
O      0.93208  0.42042  0.50752     O
O      0.93212  0.57958  0.00752     O
H      0.93244  0.65247  0.88404     H
H      0.93245  0.34753  0.38404     H
H      0.93384  0.12458  0.03065     H
H      0.93384  0.87542  0.53065     H
H      0.93468  0.29191  0.85888     H
H      0.93468  0.70809  0.35888     H
C      0.94316  0.04962  0.94214     C
C      0.94316  0.95042  0.44214     C
Cu     0.94464  0.49319   0.5402    Cu
Cu     0.94464  0.50681   0.0402    Cu
O      0.95056  0.47111  0.88532     O
O      0.95056  0.52889  0.38532     O
H      0.95114  0.34568  0.91774     H
H      0.95114  0.65432  0.41774     H
O      0.95276  0.15705  0.78492     O
O      0.95276  0.84295  0.28492     O
H      0.95528  0.90642  0.70195     H
H      0.95652  0.25318  0.78215     H
Cu     0.95708  0.07977  0.79819    Cu
Cu     0.95708  0.92023  0.29819    Cu
C      0.96196  0.34912  0.43974     C
C      0.96204  0.65092  0.93966     C
H      0.96219   0.0099   0.9307     H
H      0.96219   0.9901  0.43071     H
H      0.96567  0.21365  0.19319     H
H      0.96567  0.78635  0.69319     H
H      0.96689  0.28358  0.19449     H
H      0.96689  0.71642  0.69449     H
C      0.96775  0.75114  0.66264     C
C      0.96785  0.24894  0.16264     C
H      0.97015  0.24882  0.35564     H
H      0.97015  0.75118  0.85564     H
H      0.97177  0.32981  0.04815     H
H      0.97177   0.6702  0.54815     H
C      0.97326  0.40562  0.46284     C
C      0.97334  0.59442  0.96276     C
O      0.97346  0.00336  0.79792     O
O      0.97346  0.99664  0.29792     O
H       0.9743  0.25318  0.69723     H
H      0.97579  0.90642  0.79377     H
O      0.97656  0.56664  0.56402     O
O      0.97664  0.43336  0.06402     O
H      0.99622  0.07429  0.54486     H
H      0.99622  0.92571  0.04486     H
