data_I
_chemical_name_common  '/home/zhangsd/repos/MofS-CGCNN/CGCNN_MT/data/WS24v2_external_test/clean_cifs/val_18'
_cell_length_a 28.83520
_cell_length_b 10.00890
_cell_length_c 21.92430
_cell_angle_alpha 90.00000
_cell_angle_beta  128.84300
_cell_angle_gamma 90.00000
_space_group_name_H-M_alt      'P 1'


loop_
_space_group_symop_operation_xyz
  'x, y, z' 

loop_
_atom_site_label
_atom_site_fract_x
_atom_site_fract_y
_atom_site_fract_z
_atom_site_type_symbol
Ni         0.0      0.5      0.0    Ni
Ni         0.0      0.5      0.5    Ni
N      0.02662  0.42532  0.10729     N
N      0.02662  0.57472  0.60729     N
H       0.0279   0.4058   0.6521     H
H       0.0279   0.5942   0.1521     H
H       0.0311   0.2376   0.0856     H
H       0.0311   0.7624   0.5856     H
C      0.03527  0.49674  0.66242     C
C      0.03527  0.50334  0.16242     C
C      0.03712  0.29444  0.12357     C
C      0.03712  0.70564  0.62357     C
O       0.0477  0.34933  0.99429     O
O       0.0477  0.65067  0.49429     O
C      0.05469  0.45714  0.23491     C
C      0.05469  0.54294  0.73491     C
C      0.05643  0.23964   0.1937     C
C      0.05643  0.76044   0.6937     C
H       0.0601   0.4838   0.7717     H
H       0.0601   0.5162   0.2717     H
O      0.06049  0.09362  0.52602     O
O      0.06049  0.90642  0.02602     O
H       0.0631   0.1481    0.202     H
H       0.0631   0.8519    0.702     H
C      0.06598  0.32064  0.25171     C
C      0.06598  0.67944  0.75171     C
H       0.0672   0.0727    0.299     H
H       0.0672   0.9273    0.799     H
O      0.07169  0.36952  0.55323     O
O      0.07169  0.63048  0.05323     O
C      0.08363  0.13254  0.34033     C
C      0.08363  0.86754  0.84033     C
C      0.08695  0.26734  0.32854     C
C      0.08695  0.73274  0.82854     C
C      0.10222  0.37242  0.02901     C
C      0.10222  0.62762  0.52901     C
H       0.1029   0.0043   0.9199     H
H       0.1029   0.9957   0.4199     H
C      0.10466  0.08674  0.41312     C
C      0.10466  0.91334  0.91312     C
C      0.11021  0.35014  0.39189     C
C      0.11021  0.64994  0.89189     C
H       0.1125   0.4417   0.3869     H
H       0.1125   0.5583   0.8869     H
O      0.12426  0.39242   0.9961     O
O      0.12426  0.60762   0.4961     O
C      0.12662  0.37342  0.60903     C
C      0.12662  0.62662  0.10903     C
N      0.12749  0.16822  0.47415     N
N      0.12749  0.83182  0.97415     N
C      0.13018  0.29744  0.46288     C
C      0.13018  0.70264  0.96288     C
C      0.14347  0.37782  0.11787     C
C      0.14347  0.62222  0.61787     C
H       0.1464   0.3554   0.5049     H
H       0.1464   0.6446   0.0049     H
O      0.14695  0.11338  0.06264     O
O      0.14695  0.88662  0.56264     O
Ni     0.15082  0.09773  0.57889    Ni
Ni     0.15082  0.90227  0.07889    Ni
C      0.15457  0.49982  0.15571     C
C      0.15457  0.50022  0.65571     C
C      0.15971  0.12672  0.12883     C
C      0.15971  0.87332  0.62883     C
O      0.16159   0.2777  0.62905     O
O      0.16159   0.7223  0.12905     O
O      0.16685  0.02485  0.16755     O
O      0.16685  0.97515  0.66755     O
C      0.16913  0.26252  0.16414     C
C      0.16913  0.73752  0.66414     C
C      0.19218  0.49222  0.73722     C
C      0.19218  0.50782  0.23722     C
H       0.2008   0.4096   0.7616     H
H       0.2008   0.5904   0.2616     H
C      0.20485  0.26952  0.24462     C
C      0.20485  0.73052  0.74462     C
C      0.21686  0.39242  0.28212     C
C      0.21686  0.60762  0.78212     C
H       0.2211   0.1917   0.2742     H
H       0.2211   0.8083   0.7742     H
N      0.24378  0.10222  0.63437     N
N      0.24378  0.89782  0.13437     N
H       0.2474   0.4712   0.3803     H
H       0.2474   0.5288   0.8803     H
H       0.2492   0.3263   0.3836     H
H       0.2492   0.6737   0.8836     H
H       0.2508   0.1737   0.6164     H
H       0.2508   0.8263   0.1164     H
H       0.2526   0.0288   0.6197     H
H       0.2526   0.9712   0.1197     H
N      0.25624  0.39782  0.36563     N
N      0.25624  0.60222  0.86563     N
H       0.2789   0.3083   0.7258     H
H       0.2789   0.6917   0.2258     H
C      0.28316  0.10762  0.71788     C
C      0.28316  0.89242  0.21788     C
C      0.29517  0.23052  0.75538     C
C      0.29517  0.76952  0.25538     C
H       0.2992   0.0904   0.2384     H
H       0.2992   0.9096   0.7384     H
C      0.30784  0.00782  0.26278     C
C      0.30784  0.99222  0.76278     C
C      0.33089  0.23752  0.83586     C
C      0.33089  0.76252  0.33586     C
O      0.33317  0.47515  0.83247     O
O      0.33317  0.52485  0.33247     O
O      0.33843   0.2223  0.37097     O
O      0.33843   0.7777  0.87097     O
C      0.34031  0.37332  0.87117     C
C      0.34031  0.62672  0.37117     C
C      0.34545  0.00022  0.84429     C
C      0.34545  0.99982  0.34429     C
Ni     0.34918  0.40227  0.42111    Ni
Ni     0.34918  0.59773  0.92111    Ni
O      0.35307  0.38662  0.93738     O
O      0.35307  0.61338  0.43738     O
H       0.3536   0.1446   0.4951     H
H       0.3536   0.8554   0.9951     H
C      0.35655  0.12222  0.88213     C
C      0.35655  0.87782  0.38213     C
C      0.36982  0.20264  0.53712     C
C      0.36982  0.79744  0.03712     C
N      0.37253  0.33182  0.52585     N
N      0.37253  0.66822  0.02585     N
C       0.3734  0.12662  0.39097     C
C       0.3734  0.87342  0.89097     C
O      0.37576  0.10762  0.00392     O
O      0.37576  0.89242  0.50392     O
H       0.3875   0.0583   0.6131     H
H       0.3875   0.9417   0.1131     H
C      0.38979  0.14994  0.60811     C
C      0.38979  0.85014  0.10811     C
C      0.39534  0.41334  0.58688     C
C      0.39534  0.58674  0.08688     C
H       0.3971   0.4957   0.0801     H
H       0.3971   0.5043   0.5801     H
C       0.3978  0.12762  0.97099     C
C       0.3978  0.87242  0.47099     C
C      0.41307  0.23274  0.67146     C
C      0.41307  0.76734  0.17146     C
C      0.41637  0.36754  0.65967     C
C      0.41637  0.63254  0.15967     C
O      0.42833  0.13048  0.44679     O
O      0.42833  0.86952  0.94679     O
H       0.4328   0.4273    0.701     H
H       0.4328   0.5727    0.201     H
C      0.43404  0.17944  0.74829     C
C      0.43404  0.82064  0.24829     C
H       0.4369   0.3519    0.798     H
H       0.4369   0.6481    0.298     H
O      0.43953  0.40642  0.47398     O
O      0.43953  0.59362  0.97398     O
H       0.4399   0.0162   0.2283     H
H       0.4399   0.9838   0.7283     H
C      0.44357  0.26044   0.8063     C
C      0.44357  0.73964   0.3063     C
C      0.44531  0.04294  0.76509     C
C      0.44531  0.95714  0.26509     C
O      0.45232  0.15067  0.00573     O
O      0.45232  0.84933  0.50573     O
C      0.46288  0.20564  0.87643     C
C      0.46288  0.79444  0.37643     C
C      0.46473  0.00334  0.33758     C
C      0.46473  0.99674  0.83758     C
H       0.4689   0.2624   0.9144     H
H       0.4689   0.7376   0.4144     H
H       0.4721   0.0942   0.3479     H
H       0.4721   0.9058   0.8479     H
N       0.4734  0.07472  0.89273     N
N       0.4734  0.92532  0.39273     N
Ni         0.5      0.0      0.0    Ni
Ni         0.5      0.0      0.5    Ni
N      0.52662  0.07472  0.60729     N
N      0.52662  0.92532  0.10729     N
H       0.5279   0.0942   0.1521     H
H       0.5279   0.9058   0.6521     H
H       0.5311   0.2624   0.5856     H
H       0.5311   0.7376   0.0856     H
C      0.53527  0.00334  0.16242     C
C      0.53527  0.99674  0.66242     C
C      0.53712  0.20564  0.62357     C
C      0.53712  0.79444  0.12357     C
O       0.5477  0.15067  0.49429     O
O       0.5477  0.84933  0.99429     O
C      0.55469  0.04294  0.73491     C
C      0.55469  0.95714  0.23491     C
C      0.55643  0.26044   0.6937     C
C      0.55643  0.73964   0.1937     C
H       0.5601   0.0162   0.2717     H
H       0.5601   0.9838   0.7717     H
O      0.56049  0.40642  0.02602     O
O      0.56049  0.59362  0.52602     O
H       0.5631   0.3519    0.702     H
H       0.5631   0.6481    0.202     H
C      0.56598  0.17944  0.75171     C
C      0.56598  0.82064  0.25171     C
H       0.5672   0.4273    0.799     H
H       0.5672   0.5727    0.299     H
O      0.57169  0.13048  0.05323     O
O      0.57169  0.86952  0.55323     O
C      0.58363  0.36754  0.84033     C
C      0.58363  0.63254  0.34033     C
C      0.58695  0.23274  0.82854     C
C      0.58695  0.76734  0.32854     C
C      0.60222  0.12762  0.52901     C
C      0.60222  0.87242  0.02901     C
H       0.6029   0.4957   0.4199     H
H       0.6029   0.5043   0.9199     H
C      0.60466  0.41334  0.91312     C
C      0.60466  0.58674  0.41312     C
C      0.61021  0.14994  0.89189     C
C      0.61021  0.85014  0.39189     C
H       0.6125   0.0583   0.8869     H
H       0.6125   0.9417   0.3869     H
O      0.62426  0.10762   0.4961     O
O      0.62426  0.89242   0.9961     O
C      0.62662  0.12662  0.10903     C
C      0.62662  0.87342  0.60903     C
N      0.62749  0.33182  0.97415     N
N      0.62749  0.66822  0.47415     N
C      0.63018  0.20264  0.96288     C
C      0.63018  0.79744  0.46288     C
C      0.64347  0.12222  0.61787     C
C      0.64347  0.87782  0.11787     C
H       0.6464   0.1446   0.0049     H
H       0.6464   0.8554   0.5049     H
O      0.64695  0.38662  0.56264     O
O      0.64695  0.61338  0.06264     O
Ni     0.65082  0.40227  0.07889    Ni
Ni     0.65082  0.59773  0.57889    Ni
C      0.65457  0.00022  0.65571     C
C      0.65457  0.99982  0.15571     C
C      0.65971  0.37332  0.62883     C
C      0.65971  0.62672  0.12883     C
O      0.66159   0.2223  0.12905     O
O      0.66159   0.7777  0.62905     O
O      0.66685  0.47515  0.66755     O
O      0.66685  0.52485  0.16755     O
C      0.66913  0.23752  0.66414     C
C      0.66913  0.76252  0.16414     C
C      0.69218  0.00782  0.23722     C
C      0.69218  0.99222  0.73722     C
H       0.7008   0.0904   0.2616     H
H       0.7008   0.9096   0.7616     H
C      0.70485  0.23052  0.74462     C
C      0.70485  0.76952  0.24462     C
C      0.71686  0.10762  0.78212     C
C      0.71686  0.89242  0.28212     C
H       0.7211   0.3083   0.7742     H
H       0.7211   0.6917   0.2742     H
N      0.74378  0.39782  0.13437     N
N      0.74378  0.60222  0.63437     N
H       0.7474   0.0288   0.8803     H
H       0.7474   0.9712   0.3803     H
H       0.7492   0.1737   0.8836     H
H       0.7492   0.8263   0.3836     H
H       0.7508   0.3263   0.1164     H
H       0.7508   0.6737   0.6164     H
H       0.7526   0.4712   0.1197     H
H       0.7526   0.5288   0.6197     H
N      0.75624  0.10222  0.86563     N
N      0.75624  0.89782  0.36563     N
H       0.7789   0.1917   0.2258     H
H       0.7789   0.8083   0.7258     H
C      0.78316  0.39242  0.21788     C
C      0.78316  0.60762  0.71788     C
C      0.79517  0.26952  0.25538     C
C      0.79517  0.73052  0.75538     C
H       0.7992   0.4096   0.7384     H
H       0.7992   0.5904   0.2384     H
C      0.80784  0.49222  0.76278     C
C      0.80784  0.50782  0.26278     C
C      0.83089  0.26252  0.33586     C
C      0.83089  0.73752  0.83586     C
O      0.83317  0.02485  0.33247     O
O      0.83317  0.97515  0.83247     O
O      0.83843   0.2777  0.87097     O
O      0.83843   0.7223  0.37097     O
C      0.84031  0.12672  0.37117     C
C      0.84031  0.87332  0.87117     C
C      0.84545  0.49982  0.34429     C
C      0.84545  0.50022  0.84429     C
Ni     0.84918  0.09773  0.92111    Ni
Ni     0.84918  0.90227  0.42111    Ni
O      0.85307  0.11338  0.43738     O
O      0.85307  0.88662  0.93738     O
H       0.8536   0.3554   0.9951     H
H       0.8536   0.6446   0.4951     H
C      0.85655  0.37782  0.38213     C
C      0.85655  0.62222  0.88213     C
C      0.86982  0.29744  0.03712     C
C      0.86982  0.70264  0.53712     C
N      0.87253  0.16822  0.02585     N
N      0.87253  0.83182  0.52585     N
C       0.8734  0.37342  0.89097     C
C       0.8734  0.62662  0.39097     C
O      0.87576  0.39242  0.50392     O
O      0.87576  0.60762  0.00392     O
H       0.8875   0.4417   0.1131     H
H       0.8875   0.5583   0.6131     H
C      0.88979  0.35014  0.10811     C
C      0.88979  0.64994  0.60811     C
C      0.89534  0.08674  0.08688     C
C      0.89534  0.91334  0.58688     C
H       0.8971   0.0043   0.5801     H
H       0.8971   0.9957   0.0801     H
C       0.8978  0.37242  0.47099     C
C       0.8978  0.62762  0.97099     C
C      0.91307  0.26734  0.17146     C
C      0.91307  0.73274  0.67146     C
C      0.91637  0.13254  0.15967     C
C      0.91637  0.86754  0.65967     C
O      0.92833  0.36952  0.94679     O
O      0.92833  0.63048  0.44679     O
H       0.9328   0.0727    0.201     H
H       0.9328   0.9273    0.701     H
C      0.93404  0.32064  0.24829     C
C      0.93404  0.67944  0.74829     C
H       0.9369   0.1481    0.298     H
H       0.9369   0.8519    0.798     H
O      0.93953  0.09362  0.97398     O
O      0.93953  0.90642  0.47398     O
H       0.9399   0.4838   0.7283     H
H       0.9399   0.5162   0.2283     H
C      0.94357  0.23964   0.3063     C
C      0.94357  0.76044   0.8063     C
C      0.94531  0.45714  0.26509     C
C      0.94531  0.54294  0.76509     C
O      0.95232  0.34933  0.50573     O
O      0.95232  0.65067  0.00573     O
C      0.96288  0.29444  0.37643     C
C      0.96288  0.70564  0.87643     C
C      0.96473  0.49674  0.83758     C
C      0.96473  0.50334  0.33758     C
H       0.9689   0.2376   0.4144     H
H       0.9689   0.7624   0.9144     H
H       0.9721   0.4058   0.8479     H
H       0.9721   0.5942   0.3479     H
N       0.9734  0.42532  0.39273     N
N       0.9734  0.57472  0.89273     N
