data_I
_chemical_name_common  '/home/zhangsd/repos/MofS-CGCNN/CGCNN_MT/data/WS24v2_external_test/clean_cifs/val_16'
_cell_length_a 23.87870
_cell_length_b 13.38600
_cell_length_c 13.69750
_cell_angle_alpha 90.00000
_cell_angle_beta  101.69700
_cell_angle_gamma 90.00000
_space_group_name_H-M_alt      'P 1'


loop_
_space_group_symop_operation_xyz
  'x, y, z' 

loop_
_atom_site_label
_atom_site_fract_x
_atom_site_fract_y
_atom_site_fract_z
_atom_site_type_symbol
C      0.01272  0.33257  0.42385     C
C      0.01272  0.66757  0.92385     C
O      0.02323  0.25564  0.47314     O
O      0.02323  0.74444  0.97314     O
C      0.04874  0.35559  0.12828     C
C      0.04874  0.64459  0.62828     C
H       0.0522   0.3497    0.199     H
H       0.0522   0.6503    0.699     H
O      0.05254  0.38864  0.41624     O
O      0.05254  0.61144  0.91624     O
H       0.0583   0.4222    0.112     H
H       0.0583   0.5778    0.612     H
H       0.0742    0.309   0.1062     H
H       0.0742    0.691   0.6062     H
O      0.09954  0.09534  0.37315     O
O      0.09954  0.90474  0.87315     O
O      0.11145  0.13882  0.59494     O
O      0.11145  0.86122  0.09494     O
O      0.11359  0.35582  0.64562     O
O      0.11359  0.64422  0.14562     O
In     0.11706   0.2774  0.50881    In
In     0.11706   0.7226  0.00881    In
H       0.1258     0.02   0.7454     H
H       0.1258     0.98   0.2454     H
C      0.13335  0.14934  0.34474     C
C      0.13335  0.85074  0.84474     C
C       0.1446  0.43364  0.66824     C
C       0.1446  0.56644  0.16824     C
O      0.14514  0.23562  0.37822     O
O      0.14514  0.76442  0.87822     O
O      0.14589  0.48454  0.74362     O
O      0.14589  0.51554  0.24362     O
C      0.15344  0.01954  0.22524     C
C      0.15344  0.98054  0.72524     C
C      0.16413  0.11874  0.61134     C
C      0.16413  0.88134  0.11134     C
C      0.16471  0.11304  0.26684     C
C      0.16471  0.88704  0.76684     C
N      0.17819  0.40652  0.51482     N
N      0.17819  0.59352  0.01482     N
C      0.18161  0.46454  0.59592     C
C      0.18161  0.53554  0.09592     C
C      0.18203  0.01784  0.65374     C
C      0.18203  0.98224  0.15374     C
O      0.19785  0.17992  0.58824     O
O      0.19785  0.82012  0.08824     O
H       0.2053   0.3903     0.39     H
H       0.2053   0.6097     0.89     H
C      0.20597  0.17204  0.23604     C
C      0.20597  0.82804  0.73604     C
C      0.20863  0.43024  0.44652     C
C      0.20863  0.56984  0.94652     C
H       0.2145    0.235   0.2636     H
H       0.2145    0.765   0.7636     H
C       0.2163  0.45254  0.11164     C
C       0.2163  0.54754  0.61164     C
H       0.2181   0.4131   0.1681     H
H       0.2181   0.5869   0.6681     H
C      0.22313  0.04204  0.12204     C
C      0.22313  0.95804  0.62204     C
H       0.2279   0.1265   0.9484     H
H       0.2279   0.8735   0.4484     H
C      0.23418  0.13644  0.16414     C
C      0.23418  0.86364  0.66414     C
H       0.2387   0.3232   0.8567     H
H       0.2387   0.6768   0.3567     H
C       0.2453  0.48764  0.95652     C
C       0.2453  0.51244  0.45652     C
C      0.24824  0.42914  0.04184     C
C      0.24824  0.57094  0.54184     C
C      0.25176  0.07094  0.95824     C
C      0.25176  0.92914  0.45824     C
C       0.2547  0.01244  0.04352     C
C       0.2547  0.98764  0.54352     C
H       0.2613   0.1768   0.1433     H
H       0.2613   0.8232   0.6433     H
C      0.26582  0.36364  0.83594     C
C      0.26582  0.63644  0.33594     C
H       0.2721   0.3735   0.0516     H
H       0.2721   0.6265   0.5516     H
C      0.27687  0.45804  0.87804     C
C      0.27687  0.54204  0.37804     C
H       0.2819   0.0869   0.8319     H
H       0.2819   0.9131   0.3319     H
C       0.2837  0.04754  0.88844     C
C       0.2837  0.95254  0.38844     C
H       0.2855    0.265   0.7364     H
H       0.2855    0.735   0.2364     H
C      0.29137  0.06984  0.55352     C
C      0.29137  0.93024  0.05352     C
C      0.29403  0.32804  0.76404     C
C      0.29403  0.67204  0.26404     C
H       0.2947   0.1097     0.61     H
H       0.2947   0.8903     0.11     H
O      0.30215  0.32012  0.41184     O
O      0.30215  0.67992  0.91184     O
C      0.31797  0.48224  0.34634     C
C      0.31797  0.51784  0.84634     C
C      0.31839  0.03554  0.40412     C
C      0.31839  0.96454  0.90412     C
N      0.32181  0.09352  0.48522     N
N      0.32181  0.90652  0.98522     N
C      0.33529  0.38704  0.73324     C
C      0.33529  0.61304  0.23324     C
C      0.33587  0.38134  0.38874     C
C      0.33587  0.61874  0.88874     C
C      0.34656  0.48054  0.77484     C
C      0.34656  0.51954  0.27484     C
O      0.35411  0.01554  0.25642     O
O      0.35411  0.98454  0.75642     O
O      0.35486  0.26442  0.62182     O
O      0.35486  0.73562  0.12182     O
C       0.3554  0.06644  0.33184     C
C       0.3554  0.93364  0.83184     C
C      0.36665  0.35074  0.65534     C
C      0.36665  0.64934  0.15534     C
H       0.3742     0.48   0.2546     H
H       0.3742     0.52   0.7546     H
In     0.38294   0.2226  0.49119    In
In     0.38294   0.7774  0.99119    In
O      0.38641  0.14422  0.35442     O
O      0.38641  0.85582  0.85442     O
O      0.38855  0.36122  0.40514     O
O      0.38855  0.63882  0.90514     O
O      0.40054  0.40474  0.62695     O
O      0.40054  0.59534  0.12695     O
H       0.4258    0.191   0.8938     H
H       0.4258    0.809   0.3938     H
H       0.4417   0.0778    0.888     H
H       0.4417   0.9222    0.388     H
O      0.44746  0.11144  0.58384     O
O      0.44746  0.88864  0.08384     O
H       0.4478   0.1503    0.801     H
H       0.4478   0.8497    0.301     H
C      0.45134  0.14459  0.87188     C
C      0.45134  0.85559  0.37188     C
O      0.47677  0.24444  0.52694     O
O      0.47677  0.75564  0.02694     O
C      0.48732  0.16757  0.57625     C
C      0.48732  0.83257  0.07625     C
C      0.51272  0.16757  0.92385     C
C      0.51272  0.83257  0.42385     C
O      0.52323  0.24444  0.97314     O
O      0.52323  0.75564  0.47314     O
C      0.54874  0.14459  0.62828     C
C      0.54874  0.85559  0.12828     C
H       0.5522   0.1503    0.699     H
H       0.5522   0.8497    0.199     H
O      0.55254  0.11144  0.91624     O
O      0.55254  0.88864  0.41624     O
H       0.5583   0.0778    0.612     H
H       0.5583   0.9222    0.112     H
H       0.5742    0.191   0.6062     H
H       0.5742    0.809   0.1062     H
O      0.59954  0.40474  0.87315     O
O      0.59954  0.59534  0.37315     O
O      0.61145  0.36122  0.09494     O
O      0.61145  0.63882  0.59494     O
O      0.61359  0.14422  0.14562     O
O      0.61359  0.85582  0.64562     O
In     0.61706   0.2226  0.00881    In
In     0.61706   0.7774  0.50881    In
H       0.6258     0.48   0.2454     H
H       0.6258     0.52   0.7454     H
C      0.63335  0.35074  0.84474     C
C      0.63335  0.64934  0.34474     C
C       0.6446  0.06644  0.16824     C
C       0.6446  0.93364  0.66824     C
O      0.64514  0.26442  0.87822     O
O      0.64514  0.73562  0.37822     O
O      0.64589  0.01554  0.24362     O
O      0.64589  0.98454  0.74362     O
C      0.65344  0.48054  0.72524     C
C      0.65344  0.51954  0.22524     C
C      0.66413  0.38134  0.11134     C
C      0.66413  0.61874  0.61134     C
C      0.66471  0.38704  0.76684     C
C      0.66471  0.61304  0.26684     C
N      0.67819  0.09352  0.01482     N
N      0.67819  0.90652  0.51482     N
C      0.68161  0.03554  0.09592     C
C      0.68161  0.96454  0.59592     C
C      0.68203  0.48224  0.15374     C
C      0.68203  0.51784  0.65374     C
O      0.69785  0.32012  0.08824     O
O      0.69785  0.67992  0.58824     O
H       0.7053   0.1097     0.89     H
H       0.7053   0.8903     0.39     H
C      0.70597  0.32804  0.73604     C
C      0.70597  0.67204  0.23604     C
C      0.70863  0.06984  0.94652     C
C      0.70863  0.93024  0.44652     C
H       0.7145    0.265   0.7636     H
H       0.7145    0.735   0.2636     H
C       0.7163  0.04754  0.61164     C
C       0.7163  0.95254  0.11164     C
H       0.7181   0.0869   0.6681     H
H       0.7181   0.9131   0.1681     H
C      0.72313  0.45804  0.62204     C
C      0.72313  0.54204  0.12204     C
H       0.7279   0.3735   0.4484     H
H       0.7279   0.6265   0.9484     H
C      0.73418  0.36364  0.66414     C
C      0.73418  0.63644  0.16414     C
H       0.7387   0.1768   0.3567     H
H       0.7387   0.8232   0.8567     H
C       0.7453  0.01244  0.45652     C
C       0.7453  0.98764  0.95652     C
C      0.74824  0.07094  0.54184     C
C      0.74824  0.92914  0.04184     C
C      0.75176  0.42914  0.45824     C
C      0.75176  0.57094  0.95824     C
C       0.7547  0.48764  0.54352     C
C       0.7547  0.51244  0.04352     C
H       0.7613   0.3232   0.6433     H
H       0.7613   0.6768   0.1433     H
C      0.76582  0.13644  0.33594     C
C      0.76582  0.86364  0.83594     C
H       0.7721   0.1265   0.5516     H
H       0.7721   0.8735   0.0516     H
C      0.77687  0.04204  0.37804     C
C      0.77687  0.95804  0.87804     C
H       0.7819   0.4131   0.3319     H
H       0.7819   0.5869   0.8319     H
C       0.7837  0.45254  0.38844     C
C       0.7837  0.54754  0.88844     C
H       0.7855    0.235   0.2364     H
H       0.7855    0.765   0.7364     H
C      0.79137  0.43024  0.05352     C
C      0.79137  0.56984  0.55352     C
C      0.79403  0.17204  0.26404     C
C      0.79403  0.82804  0.76404     C
H       0.7947   0.3903     0.11     H
H       0.7947   0.6097     0.61     H
O      0.80215  0.17992  0.91184     O
O      0.80215  0.82012  0.41184     O
C      0.81797  0.01784  0.84634     C
C      0.81797  0.98224  0.34634     C
C      0.81839  0.46454  0.90412     C
C      0.81839  0.53554  0.40412     C
N      0.82181  0.40652  0.98522     N
N      0.82181  0.59352  0.48522     N
C      0.83529  0.11304  0.23324     C
C      0.83529  0.88704  0.73324     C
C      0.83587  0.11874  0.88874     C
C      0.83587  0.88134  0.38874     C
C      0.84656  0.01954  0.27484     C
C      0.84656  0.98054  0.77484     C
O      0.85411  0.48454  0.75642     O
O      0.85411  0.51554  0.25642     O
O      0.85486  0.23562  0.12182     O
O      0.85486  0.76442  0.62182     O
C       0.8554  0.43364  0.83184     C
C       0.8554  0.56644  0.33184     C
C      0.86665  0.14934  0.15534     C
C      0.86665  0.85074  0.65534     C
H       0.8742     0.02   0.7546     H
H       0.8742     0.98   0.2546     H
In     0.88294   0.2774  0.99119    In
In     0.88294   0.7226  0.49119    In
O      0.88641  0.35582  0.85442     O
O      0.88641  0.64422  0.35442     O
O      0.88855  0.13882  0.90514     O
O      0.88855  0.86122  0.40514     O
O      0.90054  0.09534  0.12695     O
O      0.90054  0.90474  0.62695     O
H       0.9258    0.309   0.3938     H
H       0.9258    0.691   0.8938     H
H       0.9417   0.4222    0.388     H
H       0.9417   0.5778    0.888     H
O      0.94746  0.38864  0.08384     O
O      0.94746  0.61144  0.58384     O
H       0.9478   0.3497    0.301     H
H       0.9478   0.6503    0.801     H
C      0.95134  0.35559  0.37188     C
C      0.95134  0.64459  0.87188     C
O      0.97677  0.25564  0.02694     O
O      0.97677  0.74444  0.52694     O
C      0.98732  0.33257  0.07625     C
C      0.98732  0.66757  0.57625     C
