data_I
_chemical_name_common  '/home/zhangsd/repos/MofS-CGCNN/CGCNN_MT/data/WS24v2_external_test/clean_cifs/val_20'
_cell_length_a 29.00620
_cell_length_b 10.00430
_cell_length_c 22.07010
_cell_angle_alpha 90.00000
_cell_angle_beta  129.46200
_cell_angle_gamma 90.00000
_space_group_name_H-M_alt      'P 1'


loop_
_space_group_symop_operation_xyz
  'x, y, z' 

loop_
_atom_site_label
_atom_site_fract_x
_atom_site_fract_y
_atom_site_fract_z
_atom_site_type_symbol
Ni         0.0      0.0      0.0    Ni
Ni         0.0      0.0      0.5    Ni
N      0.03112  0.07347  0.60974     N
N      0.03112  0.92667  0.10974     N
H       0.0328   0.0968    0.154     H
H       0.0328   0.9032    0.654     H
H       0.0367    0.261   0.5887     H
H       0.0367    0.739   0.0887     H
C      0.04094  0.00618  0.16484     C
C      0.04094  0.99398  0.66484     C
C      0.04364  0.20427  0.62714     C
C      0.04364  0.79587  0.12714     C
O      0.04678  0.14804  0.49182     O
O      0.04678  0.85204  0.99182     O
H       0.0508   0.3485   0.0355     H
H       0.0508   0.6515   0.5355     H
H       0.0522   0.4842   0.0298     H
H       0.0522   0.5158   0.5298     H
H       0.0554   0.4113   0.7958     H
H       0.0554   0.5887   0.2958     H
O      0.06122  0.41067  0.01834     O
O      0.06122  0.58947  0.51834     O
C      0.06295  0.04109  0.73844     C
C      0.06295  0.95909  0.23844     C
C      0.06624  0.25877  0.69854     C
C      0.06624  0.74137  0.19854     C
H       0.0688   0.0179   0.2754     H
H       0.0688   0.9821   0.7754     H
O      0.07058  0.13264  0.04994     O
O      0.07058  0.86744  0.54994     O
C      0.07614  0.17658  0.75644     C
C      0.07614  0.82358  0.25644     C
C      0.07977  0.35761  0.84017     C
C      0.07977  0.64241  0.34017     C
H       0.0836   0.4113   0.6735     H
H       0.0836   0.5887   0.1735     H
H       0.0845   0.4866    0.915     H
H       0.0845   0.5134    0.415     H
N      0.08502   0.3724   0.7092     N
N      0.08502   0.6284   0.2092     N
C      0.09764  0.23019  0.83335     C
C      0.09764  0.76999 0.33333333     C
C      0.09777  0.40401  0.91197     C
C      0.09777  0.59601  0.41197     C
H       0.0998   0.4121   0.7525     H
H       0.0998   0.5879   0.2525     H
C      0.10124  0.12427  0.52434     C
C      0.10124  0.87587  0.02434     C
O      0.12072  0.10347  0.48974     O
O      0.12072  0.89667  0.98974     O
C      0.12612  0.12877  0.10514     C
C      0.12612  0.87137  0.60514     C
C      0.12945  0.15551  0.90117     C
C      0.12945  0.84451  0.40117     C
N      0.13374  0.32957  0.97594     N
N      0.13374  0.67057  0.47594     N
H       0.1397   0.0677   0.9006     H
H       0.1397   0.9323   0.4006     H
C      0.14372  0.12007  0.61344     C
C      0.14372  0.88007  0.11344     C
C      0.14645  0.21041  0.97037     C
C      0.14645  0.78961  0.47037     C
O      0.15002  0.38484  0.56014     O
O      0.15002  0.61524  0.06014     O
Ni     0.15197  0.40359  0.07638    Ni
Ni     0.15197  0.59643  0.57638    Ni
C      0.15454  0.00175  0.15164     C
C      0.15454  0.99835  0.65164     C
C      0.16094  0.37047  0.62444     C
C      0.16094  0.62967  0.12444     C
O      0.16102  0.22504  0.12484     O
O      0.16102  0.77504  0.62484     O
O      0.16562  0.47224  0.66294     O
O      0.16562  0.52784  0.16294     O
H       0.1682   0.1574   0.0151     H
H       0.1682   0.8426   0.5151     H
C      0.17062  0.23535  0.65974     C
C      0.17062  0.76475  0.15974     C
C      0.19154  0.00915  0.23334     C
C      0.19154  0.99095  0.73334     C
H       0.1997   0.0915   0.2578     H
H       0.1997   0.9085   0.7578     H
C      0.20562  0.22767  0.74064     C
C      0.20562  0.77247  0.24064     C
C      0.21632  0.10737  0.77804     C
C      0.21632  0.89277  0.27804     C
H       0.2222   0.3053   0.7703     H
H       0.2222   0.6947   0.2703     H
H       0.2438   0.0286   0.8744     H
H       0.2438   0.9714   0.3744     H
H       0.2457   0.1734   0.8778     H
H       0.2457   0.8266   0.3778     H
N      0.24632  0.39835  0.13884     N
N      0.24632  0.60175  0.63884     N
N      0.25372  0.10175  0.86124     N
N      0.25372  0.89835  0.36124     N
H       0.2543   0.3266   0.1222     H
H       0.2543   0.6734   0.6222     H
H       0.2562   0.4714   0.1256     H
H       0.2562   0.5286   0.6256     H
H       0.2778   0.1947   0.2297     H
H       0.2778   0.8053   0.7297     H
C      0.28372  0.39277  0.22204     C
C      0.28372  0.60737  0.72204     C
C      0.29442  0.27247  0.25944     C
C      0.29442  0.72767  0.75944     C
H       0.3003   0.4085   0.7422     H
H       0.3003   0.5915   0.2422     H
C      0.30854  0.49095  0.76674     C
C      0.30854  0.50915  0.26674     C
C      0.32942  0.26475  0.34034     C
C      0.32942  0.73535  0.84034     C
H       0.3318   0.3426   0.9849     H
H       0.3318   0.6574   0.4849     H
O      0.33442  0.02784  0.33714     O
O      0.33442  0.97224  0.83714     O
O      0.33902  0.27504  0.87524     O
O      0.33902  0.72504  0.37524     O
C      0.33914  0.12967  0.37564     C
C      0.33914  0.87047  0.87564     C
C      0.34554  0.49835  0.84844     C
C      0.34554  0.50175  0.34844     C
Ni     0.34803  0.09643  0.92362    Ni
Ni     0.34803  0.90359  0.42362    Ni
O      0.35002  0.11524  0.43994     O
O      0.35002  0.88484  0.93994     O
C      0.35365  0.28961  0.02977     C
C      0.35365  0.71041  0.52977     C
C      0.35632  0.38007  0.38664     C
C      0.35632  0.62007  0.88664     C
H       0.3603   0.4323   0.0994     H
H       0.3603   0.5677   0.5994     H
N      0.36634  0.17057  0.02414     N
N      0.36634  0.82957  0.52414     N
C      0.37065  0.34451  0.09897     C
C      0.37065  0.65551  0.59897     C
C      0.37392  0.37137  0.89494     C
C      0.37392  0.62877  0.39494     C
O      0.37932  0.39667  0.51034     O
O      0.37932  0.60347  0.01034     O
C      0.39884  0.37587  0.47574     C
C      0.39884  0.62427  0.97574     C
H       0.4002   0.0879   0.2475     H
H       0.4002   0.9121   0.7475     H
C      0.40237  0.09601  0.08817     C
C      0.40237  0.90401  0.58817     C
C      0.40244  0.26999  0.16675     C
C      0.40244  0.73019  0.66675     C
N      0.41502   0.1284   0.2912     N
N      0.41502   0.8724   0.7912     N
H       0.4155   0.0134    0.085     H
H       0.4155   0.9866    0.585     H
H       0.4164   0.0887   0.3265     H
H       0.4164   0.9113   0.8265     H
C      0.42037  0.14241  0.15997     C
C      0.42037  0.85761  0.65997     C
C      0.42394  0.32358  0.24364     C
C      0.42394  0.67658  0.74364     C
O      0.42942  0.36744  0.95014     O
O      0.42942  0.63264  0.45014     O
H       0.4312   0.4821   0.7246     H
H       0.4312   0.5179   0.2246     H
C      0.43384  0.24137  0.30154     C
C      0.43384  0.75877  0.80154     C
C      0.43715  0.45909  0.26164     C
C      0.43715  0.54109  0.76164     C
O      0.43882  0.08947  0.98174     O
O      0.43882  0.91067  0.48174     O
H       0.4446   0.0887   0.2042     H
H       0.4446   0.9113   0.7042     H
H       0.4478   0.0158   0.9702     H
H       0.4478   0.9842   0.4702     H
H       0.4492   0.1515   0.9645     H
H       0.4492   0.8485   0.4645     H
O      0.45322  0.35204  0.50822     O
O      0.45322  0.64804  0.00822     O
C      0.45644  0.29587  0.37294     C
C      0.45644  0.70427  0.87294     C
C      0.45914  0.49398  0.83524     C
C      0.45914  0.50618  0.33524     C
H       0.4633    0.239   0.4113     H
H       0.4633    0.761   0.9113     H
H       0.4672   0.4032    0.846     H
H       0.4672   0.5968    0.346     H
N      0.46892  0.42667  0.39034     N
N      0.46892  0.57347  0.89034     N
Ni         0.5      0.5      0.0    Ni
Ni         0.5      0.5      0.5    Ni
N      0.53112  0.42667  0.10974     N
N      0.53112  0.57347  0.60974     N
H       0.5328   0.4032    0.654     H
H       0.5328   0.5968    0.154     H
H       0.5367    0.239   0.0887     H
H       0.5367    0.761   0.5887     H
C      0.54094  0.49398  0.66484     C
C      0.54094  0.50618  0.16484     C
C      0.54364  0.29587  0.12714     C
C      0.54364  0.70427  0.62714     C
O      0.54678  0.35204  0.99182     O
O      0.54678  0.64804  0.49182     O
H       0.5508   0.1515   0.5355     H
H       0.5508   0.8485   0.0355     H
H       0.5522   0.0158   0.5298     H
H       0.5522   0.9842   0.0298     H
H       0.5554   0.0887   0.2958     H
H       0.5554   0.9113   0.7958     H
O      0.56122  0.08947  0.51834     O
O      0.56122  0.91067  0.01834     O
C      0.56295  0.45909  0.23844     C
C      0.56295  0.54109  0.73844     C
C      0.56624  0.24137  0.19854     C
C      0.56624  0.75877  0.69854     C
H       0.5688   0.4821   0.7754     H
H       0.5688   0.5179   0.2754     H
O      0.57058  0.36744  0.54994     O
O      0.57058  0.63264  0.04994     O
C      0.57614  0.32358  0.25644     C
C      0.57614  0.67658  0.75644     C
C      0.57977  0.14241  0.34017     C
C      0.57977  0.85761  0.84017     C
H       0.5836   0.0887   0.1735     H
H       0.5836   0.9113   0.6735     H
H       0.5845   0.0134    0.415     H
H       0.5845   0.9866    0.915     H
N      0.58502   0.1284   0.2092     N
N      0.58502   0.8724   0.7092     N
C      0.59764  0.26999 0.33333333     C
C      0.59764  0.73019  0.83335     C
C      0.59777  0.09601  0.41197     C
C      0.59777  0.90401  0.91197     C
H       0.5998   0.0879   0.2525     H
H       0.5998   0.9121   0.7525     H
C      0.60124  0.37587  0.02434     C
C      0.60124  0.62427  0.52434     C
O      0.62072  0.39667  0.98974     O
O      0.62072  0.60347  0.48974     O
C      0.62612  0.37137  0.60514     C
C      0.62612  0.62877  0.10514     C
C      0.62945  0.34451  0.40117     C
C      0.62945  0.65551  0.90117     C
N      0.63374  0.17057  0.47594     N
N      0.63374  0.82957  0.97594     N
H       0.6397   0.4323   0.4006     H
H       0.6397   0.5677   0.9006     H
C      0.64372  0.38007  0.11344     C
C      0.64372  0.62007  0.61344     C
C      0.64645  0.28961  0.47037     C
C      0.64645  0.71041  0.97037     C
O      0.65002  0.11524  0.06014     O
O      0.65002  0.88484  0.56014     O
Ni     0.65197  0.09643  0.57638    Ni
Ni     0.65197  0.90359  0.07638    Ni
C      0.65454  0.49835  0.65164     C
C      0.65454  0.50175  0.15164     C
C      0.66094  0.12967  0.12444     C
C      0.66094  0.87047  0.62444     C
O      0.66102  0.27504  0.62484     O
O      0.66102  0.72504  0.12484     O
O      0.66562  0.02784  0.16294     O
O      0.66562  0.97224  0.66294     O
H       0.6682   0.3426   0.5151     H
H       0.6682   0.6574   0.0151     H
C      0.67062  0.26475  0.15974     C
C      0.67062  0.73535  0.65974     C
C      0.69154  0.49095  0.73334     C
C      0.69154  0.50915  0.23334     C
H       0.6997   0.4085   0.7578     H
H       0.6997   0.5915   0.2578     H
C      0.70562  0.27247  0.24064     C
C      0.70562  0.72767  0.74064     C
C      0.71632  0.39277  0.27804     C
C      0.71632  0.60737  0.77804     C
H       0.7222   0.1947   0.2703     H
H       0.7222   0.8053   0.7703     H
H       0.7438   0.4714   0.3744     H
H       0.7438   0.5286   0.8744     H
H       0.7457   0.3266   0.3778     H
H       0.7457   0.6734   0.8778     H
N      0.74632  0.10175  0.63884     N
N      0.74632  0.89835  0.13884     N
N      0.75372  0.39835  0.36124     N
N      0.75372  0.60175  0.86124     N
H       0.7543   0.1734   0.6222     H
H       0.7543   0.8266   0.1222     H
H       0.7562   0.0286   0.6256     H
H       0.7562   0.9714   0.1256     H
H       0.7778   0.3053   0.7297     H
H       0.7778   0.6947   0.2297     H
C      0.78372  0.10737  0.72204     C
C      0.78372  0.89277  0.22204     C
C      0.79442  0.22767  0.75944     C
C      0.79442  0.77247  0.25944     C
H       0.8003   0.0915   0.2422     H
H       0.8003   0.9085   0.7422     H
C      0.80854  0.00915  0.26674     C
C      0.80854  0.99095  0.76674     C
C      0.82942  0.23535  0.84034     C
C      0.82942  0.76475  0.34034     C
H       0.8318   0.1574   0.4849     H
H       0.8318   0.8426   0.9849     H
O      0.83442  0.47224  0.83714     O
O      0.83442  0.52784  0.33714     O
O      0.83902  0.22504  0.37524     O
O      0.83902  0.77504  0.87524     O
C      0.83914  0.37047  0.87564     C
C      0.83914  0.62967  0.37564     C
C      0.84554  0.00175  0.34844     C
C      0.84554  0.99835  0.84844     C
Ni     0.84803  0.40359  0.42362    Ni
Ni     0.84803  0.59643  0.92362    Ni
O      0.85002  0.38484  0.93994     O
O      0.85002  0.61524  0.43994     O
C      0.85365  0.21041  0.52977     C
C      0.85365  0.78961  0.02977     C
C      0.85632  0.12007  0.88664     C
C      0.85632  0.88007  0.38664     C
H       0.8603   0.0677   0.5994     H
H       0.8603   0.9323   0.0994     H
N      0.86634  0.32957  0.52414     N
N      0.86634  0.67057  0.02414     N
C      0.87065  0.15551  0.59897     C
C      0.87065  0.84451  0.09897     C
C      0.87392  0.12877  0.39494     C
C      0.87392  0.87137  0.89494     C
O      0.87932  0.10347  0.01034     O
O      0.87932  0.89667  0.51034     O
C      0.89884  0.12427  0.97574     C
C      0.89884  0.87587  0.47574     C
H       0.9002   0.4121   0.7475     H
H       0.9002   0.5879   0.2475     H
C      0.90237  0.40401  0.58817     C
C      0.90237  0.59601  0.08817     C
C      0.90244  0.23019  0.66675     C
C      0.90244  0.76999  0.16675     C
N      0.91502   0.3724   0.7912     N
N      0.91502   0.6284   0.2912     N
H       0.9155   0.4866    0.585     H
H       0.9155   0.5134    0.085     H
H       0.9164   0.4113   0.8265     H
H       0.9164   0.5887   0.3265     H
C      0.92037  0.35761  0.65997     C
C      0.92037  0.64241  0.15997     C
C      0.92394  0.17658  0.74364     C
C      0.92394  0.82358  0.24364     C
O      0.92942  0.13264  0.45014     O
O      0.92942  0.86744  0.95014     O
H       0.9312   0.0179   0.2246     H
H       0.9312   0.9821   0.7246     H
C      0.93384  0.25877  0.80154     C
C      0.93384  0.74137  0.30154     C
C      0.93715  0.04109  0.76164     C
C      0.93715  0.95909  0.26164     C
O      0.93882  0.41067  0.48174     O
O      0.93882  0.58947  0.98174     O
H       0.9446   0.4113   0.7042     H
H       0.9446   0.5887   0.2042     H
H       0.9478   0.4842   0.4702     H
H       0.9478   0.5158   0.9702     H
H       0.9492   0.3485   0.4645     H
H       0.9492   0.6515   0.9645     H
O      0.95322  0.14804  0.00822     O
O      0.95322  0.85204  0.50822     O
C      0.95644  0.20427  0.87294     C
C      0.95644  0.79587  0.37294     C
C      0.95914  0.00618  0.33524     C
C      0.95914  0.99398  0.83524     C
H       0.9633    0.261   0.9113     H
H       0.9633    0.739   0.4113     H
H       0.9672   0.0968    0.346     H
H       0.9672   0.9032    0.846     H
N      0.96892  0.07347  0.89034     N
N      0.96892  0.92667  0.39034     N
