data_I
_chemical_name_common  '/home/zhangsd/repos/MofS-CGCNN/CGCNN_MT/data/WS24v2_external_test/clean_cifs/val_36'
_cell_length_a 10.27450
_cell_length_b 11.23210
_cell_length_c 11.99010
_cell_angle_alpha 74.88020
_cell_angle_beta  77.19320
_cell_angle_gamma 86.94720
_space_group_name_H-M_alt      'P 1'


loop_
_space_group_symop_operation_xyz
  'x, y, z' 

loop_
_atom_site_label
_atom_site_fract_x
_atom_site_fract_y
_atom_site_fract_z
_atom_site_type_symbol
U          0.0      0.5      0.0     U
O       0.0172   0.2892   0.2902     O
O      0.02372  0.31462  0.95132     O
O       0.0642  0.16612  0.10161     O
C       0.0672   0.2083   0.0022     C
H       0.0875   0.2544    0.759     H
C       0.1182   0.1382   0.9082     C
C       0.1202   0.1742  0.78972     C
O       0.1372   0.3172  0.47122     O
O      0.14131  0.56492  0.86661     O
H       0.1619   0.1337   0.6336     H
C       0.1642   0.1042  0.71512     C
O      0.16491  0.45471  0.07851     O
C       0.1702   0.0182   0.9512     C
H       0.1707   0.9873   0.0326     H
H       0.1857    0.908   0.6285     H
O      0.18872  0.54202  0.27391     O
H       0.2022   0.7371   0.3682     H
N      0.21172  0.98912  0.75742     N
C       0.2202   0.9462   0.8722     C
U      0.24273  0.39598  0.25171     U
H       0.2485   0.6726   0.5603     H
C       0.2573   0.9112   0.6722     C
H       0.2593    0.868   0.8984     H
H        0.272   0.8253    0.716     H
H        0.273   0.7904   0.1673     H
C       0.2912  0.72712  0.37911     C
H       0.2918   0.0383   0.4449     H
O      0.29252  0.24241  0.24552     O
C       0.3202  0.68692  0.49251     C
O      0.34031  0.68491  0.94491     O
H       0.3557   0.3145   0.5859     H
U      0.35673  0.52943  0.92763     U
H       0.3605   0.0096   0.1806     H
O      0.36541  0.38051  0.90041     O
C       0.3702  0.78082  0.16131     C
C       0.3752   0.0232   0.4682     C
C       0.3812   0.9582   0.5862     C
O      0.38701  0.61971  0.71601     O
N      0.39861  0.75121  0.28501     N
H       0.3994   0.7104   0.1263     H
O      0.40231  0.40502  0.36901     O
H       0.4077   0.2456   0.7759     H
C      0.41622  0.00482  0.10731     C
O      0.41751  0.46521  0.10671     O
C       0.4382   0.8932  0.08211     C
C       0.4462   0.3052  0.59362     C
C       0.4502  0.66812  0.50671     C
H       0.4563   0.1921   0.0441     H
C       0.4752  0.11462  0.02622     C
C       0.4772   0.2632  0.70671     C
C       0.4822  0.62662  0.62962     C
H       0.4877   0.1101   0.3098     H
C       0.4932   0.0642  0.38742     C
C       0.5072   0.9362  0.61262     C
H       0.5123   0.8899   0.6902     H
C       0.5182  0.37342  0.37042     C
C       0.5232   0.7372  0.29331     C
C       0.5252  0.88542  0.97382     C
H       0.5437   0.8079   0.9559     H
C       0.5502  0.33192  0.49331     C
C       0.5542   0.6952  0.40642     C
C       0.5622   0.1072  0.91791     C
O      0.58251  0.53481  0.89331     O
C      0.58382  0.99522  0.89272     C
H       0.5923   0.7544   0.2241     H
O      0.59771  0.59502  0.63101     O
H       0.6006   0.2896   0.8737     H
N      0.60141  0.24881  0.71501     N
O      0.61301  0.38031  0.28401     O
C       0.6192   0.0422   0.4142     C
C       0.6252   0.9772   0.5322     C
C       0.6302  0.21922  0.83871     C
O      0.63461  0.61951  0.09961     O
H       0.6395   0.9904   0.8194     H
U      0.64328  0.47058  0.07237     U
H       0.6443   0.6855   0.4141     H
O      0.65971  0.31511  0.05511     O
C       0.6802  0.31312  0.50751     C
O      0.70752  0.75761  0.75452     O
H       0.7082   0.9617   0.5551     H
C       0.7092  0.27292  0.62091     C
H        0.727   0.2096   0.8327     H
H        0.728   0.1747    0.284     H
H       0.7407    0.132   0.1016     H
C       0.7433   0.0892   0.3282     C
H       0.7515   0.3274   0.4397     H
U      0.75729  0.60404  0.74829     U
C       0.7802   0.0542   0.1282     C
N      0.78832  0.01092  0.24262     N
H       0.7978   0.2629   0.6318     H
O      0.81132  0.45802  0.72611     O
H       0.8143    0.092   0.3715     H
H       0.8293   0.0127   0.9674     H
C       0.8302   0.9822   0.0492     C
O      0.83511  0.54531  0.92151     O
C       0.8362   0.8962  0.28492     C
H       0.8381   0.8663   0.3664     H
O      0.85871  0.43512  0.13341     O
O       0.8632   0.6832  0.52882     O
C       0.8802   0.8262  0.21032     C
C       0.8822   0.8622   0.0922     C
H       0.9125   0.7456    0.241     H
C       0.9332   0.7923   0.9982     C
O       0.9362  0.83392  0.89841     O
O      0.97632  0.68542  0.04872     O
O       0.9832   0.7112   0.7102     O
