data_I
_chemical_name_common  '/home/zhangsd/repos/MofS-CGCNN/CGCNN_MT/data/WS24v2_external_test/clean_cifs/val_6'
_cell_length_a 10.61580
_cell_length_b 15.61410
_cell_length_c 17.48070
_cell_angle_alpha 88.96620
_cell_angle_beta  73.96500
_cell_angle_gamma 77.50000
_space_group_name_H-M_alt      'P 1'


loop_
_space_group_symop_operation_xyz
  'x, y, z' 

loop_
_atom_site_label
_atom_site_fract_x
_atom_site_fract_y
_atom_site_fract_z
_atom_site_type_symbol
H      0.00228  0.41001  0.53252     H
O      0.03205  0.14504  0.68424     O
C      0.03325  0.70064  0.39584     C
O      0.04844  0.91902  0.66182     O
C      0.05101  0.77079  0.97821     C
H      0.05419  0.22729  0.99156     H
H      0.05518  0.44069  0.69328     H
H      0.06238  0.34504  0.89232     H
H      0.06558  0.77085  0.91414     H
H      0.07063  0.97142  0.95667     H
H      0.07256  0.27452  0.60029     H
C      0.07345  0.62344  0.43284     C
H      0.07941  0.00172  0.45365     H
C      0.08179  0.86487  0.07967     C
O      0.08601  0.90318  0.13077     O
Cd     0.08608  0.98934  0.22946    Cd
C      0.08767  0.82914  0.31364     C
H      0.08884  0.47566  0.95854     H
N      0.08951  0.84877  0.00457     N
H      0.11221  0.56062  0.57906     H
H      0.11334  0.71126  0.99308     H
H       0.1199  0.69492   0.1724     H
H      0.12303   0.5809  0.18141     H
H      0.12855  0.09576  0.55954     H
C      0.12875  0.74554  0.35404     C
H      0.13454  0.88089  0.88618     H
C       0.1363  0.90622  0.94349     C
H        0.142  0.09263  0.40825     H
O      0.14454  0.10084  0.14022     O
C      0.15495  0.91504  0.68074     C
O      0.15754  0.96248   0.7392     O
C      0.16125  0.36024  0.88074     C
C      0.16257  0.43584  0.68304     C
O      0.16494  0.19022  0.81572     O
C      0.16931  0.02371  0.42127     C
C      0.17675  0.43294  0.91894     C
H      0.17835  0.49188  0.71234     H
O      0.17954  0.86942  0.28132     O
H      0.18392  0.50048  0.06065     H
C      0.18445  0.62934  0.16342     C
H      0.18621  0.81094  0.55218     H
C      0.19125  0.50514  0.54934     C
H      0.20607   0.3754  0.70713     H
C      0.20815  0.58864  0.42612     C
H      0.21627   0.9847  0.36561     H
H      0.22127  0.22005   0.0524     H
H      0.22712  0.44742  0.31106     H
C      0.22891  0.05397  0.53935     C
C      0.22935  0.43504  0.59414     C
Cd     0.23462  0.08807  0.71227    Cd
H      0.23817  0.90999   0.9413     H
C      0.23894  0.10534  0.16954     C
C      0.24854  0.54414  0.03192     C
C      0.25025  0.50714  0.46774     C
H      0.25491  0.62398   0.1991     H
C      0.25595  0.23174  0.78264     C
O      0.26114  0.05722  0.22522     O
C      0.26124  0.61284  0.07642     C
N      0.26298  0.01317  0.46934     N
C      0.26345  0.71194  0.34822     C
H      0.26582  0.07932  0.91097     H
C      0.27135  0.30694  0.82784     C
C      0.27537  0.79844  0.57364     C
C      0.27934  0.84914  0.63744     C
H      0.28162  0.58176  0.79414     H
O      0.30202  0.04851  0.58411     O
C      0.30244  0.45204  0.90742     C
C      0.30325  0.63344  0.38232     C
C      0.30445  0.22264  0.07684     C
C      0.31734  0.52964  0.95042     C
C      0.32654  0.16814  0.13824     C
C      0.32945  0.36464  0.55524     C
H      0.33284  0.43578  0.16553     H
O      0.33424  0.20842   0.7149     O
C      0.33564  0.43904  0.28802     C
H      0.33697  0.92508   0.1367     H
H      0.33847  0.74747  0.31661     H
C      0.34744  0.66624  0.03892     C
C      0.35005  0.43524  0.42882     C
H      0.36086  0.71903  0.07361     H
H      0.36138  0.30904  0.58918     H
C      0.36327  0.04905  0.91954     C
H      0.36698  0.06945  0.97791     H
H      0.36894  0.32137  0.99846     H
H      0.37771  0.97783  0.91561     H
H      0.38021  0.69441  0.48726     H
C      0.38397  0.73264  0.53784     C
H      0.38681  0.57312  0.64886     H
C      0.38724  0.27984  0.04672     C
C      0.38944  0.57704  0.77132     C
C      0.39005  0.36354  0.47344     C
C      0.39161  0.95379  0.43798     C
C      0.39424  0.83334  0.66324     C
C      0.39504  0.43324  0.20612     C
H      0.39802  0.92761  0.37929     H
C      0.39855  0.32514  0.81572     C
H      0.39927  0.87369  0.71194     H
C      0.40024  0.58594  0.91242     C
H      0.40253  0.90004   0.4778     H
H       0.4051  0.76515    0.834     H
H      0.40729  0.24575   0.3522     H
H      0.40963   0.6064  0.37487     H
O      0.41164  0.01852  0.75822     O
C      0.41374  0.39644  0.85572     C
C      0.41414  0.43414  0.34072     C
C      0.41724  0.65394  0.95792     C
C      0.43065  0.17364  0.16994     C
H      0.43589  0.91951  0.26108     H
H      0.43683   0.8195  0.14356     H
C      0.43737  0.88314  0.11704     C
H      0.44757  0.13234  0.21857     H
C      0.44854  0.57214  0.68952     C
C      0.46634  0.57594  0.82452     C
H      0.46748   0.8742  0.05234     H
N      0.46834  0.07614  0.85844     N
H      0.47139  0.98899  0.43291     H
C      0.48385  0.05874  0.78284     C
H      0.48577  0.28321   0.7748     H
C      0.48634  0.76874  0.85984     C
H      0.48658  0.59068   0.1532     H
C      0.49424  0.28504  0.07742     C
C      0.49705  0.23404  0.37304     C
C      0.49915  0.71344  0.56462     C
C      0.50095  0.28664  0.43542     C
C      0.50305  0.76604  0.62704     C
C      0.50584  0.71504  0.92262     C
H      0.51342  0.40932   0.8468     H
C      0.51374  0.23134  0.14024     C
H      0.51423  0.71679   0.2252     H
C      0.51625  0.94134  0.21724     C
H      0.52861  0.01101  0.56709     H
N      0.53174  0.92394  0.14164     N
H      0.53252   0.1258  0.94766     H
C      0.53374  0.42414  0.17552     C
C      0.55154  0.42794  0.31052     C
H      0.55243  0.86766  0.78143     H
C      0.56277  0.11694  0.88304     C
H      0.56317   0.1805  0.85644     H
H      0.56411  0.08049  0.73892     H
C      0.56945  0.82644  0.83014     C
C      0.58284  0.34614  0.04212     C
C      0.58594  0.56594  0.65932     C
C      0.58634  0.60364  0.14432     C
O      0.58844  0.98152  0.24182     O
H      0.59037   0.3936  0.62513     H
H      0.59271  0.75425   0.6478     H
H       0.5949  0.23485    0.166     H
H      0.59747  0.09996   0.5222     H
C      0.59984  0.41414  0.08762     C
H      0.60073  0.12631  0.28806     H
C      0.60155  0.67494  0.18432     C
H      0.60198  0.07239  0.62071     H
C      0.60504  0.56684  0.79392     C
C      0.60584  0.16674  0.33684     C
C      0.60841  0.04621  0.56218     C
C      0.61005  0.63654  0.52664     C
C      0.61064  0.42304  0.22872     C
C      0.61284  0.72024  0.95332     C
H      0.61319  0.42688  0.35114     H
C      0.61617  0.26744  0.46224     C
H      0.61979  0.30559  0.51274     H
H      0.62229  0.02217   0.0844     H
H      0.63106  0.67863  0.00154     H
H      0.63302  0.93055  0.02209     H
C      0.63687  0.95105  0.08054     C
H      0.63862  0.69096  0.41082     H
H      0.63914  0.28097  0.92639     H
C      0.65005  0.56484  0.57122     C
C      0.65264  0.33384  0.96108     C
H      0.66153  0.25253  0.68339     H
H      0.66303  0.07492   0.8633     H
C      0.66444  0.56104  0.71202     C
O      0.66584  0.79162   0.2851     O
H      0.66716  0.56422  0.83447     H
C      0.67065  0.63544  0.44484     C
C      0.67354  0.83194  0.86184     C
C      0.68274  0.47044  0.04962     C
C      0.69565  0.77744  0.92324     C
C      0.69685  0.36664  0.61772     C
C      0.69764  0.54804  0.09262     C
O      0.69802  0.95151  0.41591     O
H      0.71838  0.41824  0.20586     H
C      0.72074  0.15094  0.36264     C
C      0.72477  0.20164  0.42644     C
C      0.72875  0.69314  0.17224     C
H      0.73418  0.92068  0.08903     H
C      0.73665  0.28814  0.65182     C
N      0.73718  0.98697  0.53074     N
C      0.73884  0.38724  0.92358     C
O      0.73894  0.94278  0.77482     O
C      0.74415  0.76834  0.21744     C
H      0.74509  0.37602   0.8009     H
C      0.74985  0.49294  0.53234     C
C      0.75154  0.45594  0.96808     C
C      0.76114  0.89474  0.83054     C
H      0.76183  0.09001   0.0587     H
Cd     0.76538  0.91193  0.28773    Cd
C      0.77075  0.56504  0.40594     C
C      0.77111  0.94617  0.46075     C
H      0.77288  0.55258  0.68894     H
H      0.77873  0.77995   0.9476     H
H      0.78373   0.0153  0.63439     H
C      0.79195  0.41144  0.57392     C
H      0.79393   0.6246  0.29287     H
C      0.80885  0.49494  0.45074     C
H      0.81379  0.18906  0.44782     H
C      0.81565  0.37074  0.83658     C
H      0.81608  0.49952  0.93935     H
O      0.82054  0.13062  0.71872     O
H      0.82165  0.50812  0.28766     H
C      0.82335  0.56714  0.08114     C
C      0.83071  0.97631  0.57887     C
O      0.83514  0.80982  0.18432     O
C      0.83757  0.56424  0.31704     C
C      0.83885  0.63984  0.11934     C
O      0.84246  0.03752   0.2608     O
C      0.84515  0.08504  0.31934     C
O      0.85554  0.89916  0.85982     O
H      0.85799  0.90737  0.59175     H
C       0.8643  0.09382  0.05651     C
H      0.86545  0.11911  0.11382     H
C      0.87135  0.25454  0.64604     C
H      0.87145  0.90424  0.44046     H
H      0.87697   0.4191  0.81859     H
H       0.8801  0.30508   0.8276     H
H      0.88666  0.28874  0.00692     H
H      0.88779  0.43938  0.42094     H
N      0.91051  0.15137  0.99557     N
H      0.91116  0.52434  0.04146     H
C      0.91247  0.17094  0.68644     C
Cd     0.91392  0.01066  0.77054    Cd
O      0.91401  0.09698  0.86937     O
C      0.91839  0.13527  0.92047     C
H      0.92059  0.99828  0.54635     H
C      0.92665  0.37664  0.56724     C
H      0.92744  0.72548  0.39971     H
H      0.92937  0.02858  0.04333     H
H      0.93442  0.22915  0.08586     H
H      0.93762  0.65496  0.10768     H
H      0.94482  0.55931  0.30672     H
H      0.94581  0.77271  0.00844     H
C      0.94902  0.22939  0.02179     C
O      0.95156  0.08102  0.33822     O
C      0.96685  0.29944  0.60424     C
O      0.96795  0.85504  0.31584     O
H      0.99772  0.58999  0.46748     H
