data_I
_chemical_name_common  '/home/zhangsd/repos/MofS-CGCNN/CGCNN_MT/data/WS24v2_external_test/clean_cifs/val_43'
_cell_length_a  9.24772
_cell_length_b 10.11920
_cell_length_c 21.71510
_cell_angle_alpha 90.00000
_cell_angle_beta  100.54200
_cell_angle_gamma 90.00000
_space_group_name_H-M_alt      'P 1'


loop_
_space_group_symop_operation_xyz
  'x, y, z' 

loop_
_atom_site_label
_atom_site_fract_x
_atom_site_fract_y
_atom_site_fract_z
_atom_site_type_symbol
O      0.00594  0.02994  0.38698     O
O      0.00594  0.47014  0.88698     O
H      0.04144  0.10111  0.26559     H
H      0.04144  0.39888  0.76558     H
O      0.05664  0.24964  0.14869     O
O      0.05664  0.25044  0.64869     O
C      0.09964  0.17204  0.28521     C
C      0.09964  0.32804  0.78521     C
C      0.10404  0.11694  0.40245     C
C      0.10404  0.38314  0.90245     C
O      0.10904  0.13744  0.03522     O
O      0.10904  0.36264  0.53522     O
O      0.11274  0.62684   0.0032     O
O      0.11274  0.87324   0.5032     O
Tb     0.11657   0.1254   0.5597    Tb
Tb     0.11657   0.3746   0.0597    Tb
H       0.1418  0.61687  0.52552     H
H       0.1418  0.88313  0.02552     H
C      0.14234  0.19494   0.3487     C
C      0.14234  0.30514   0.8487     C
C      0.15284  0.19144  0.68913     C
C      0.15284  0.30864  0.18913     C
C      0.16074  0.22424  0.75622     C
C      0.16074  0.27584  0.25622     C
O      0.16964  0.14104  0.45647     O
O      0.16964  0.35904  0.95647     O
N      0.22164  0.19294  0.85437     N
N      0.22164  0.30714  0.35437     N
N      0.23574  0.14084  0.79882     N
N      0.23574  0.35924  0.29882     N
H      0.23701  0.14766  0.94599     H
H      0.23701  0.35235  0.44599     H
O      0.23874  0.10722   0.6728     O
O      0.23874  0.39282   0.1728     O
C      0.24284  0.63364  0.03396     C
C      0.24284  0.86644  0.53396     C
C      0.24494  0.12924  0.05644     C
C      0.24494  0.37084  0.55644     C
C      0.24554  0.61874  0.53894     C
C      0.24554  0.88134  0.03894     C
H       0.2474  0.02122   0.9027     H
H       0.2474  0.47878   0.4027     H
C      0.27904  0.11424  0.91019     C
C      0.27904  0.38584  0.41019     C
O      0.30534  0.53514  0.06195     O
O      0.30534  0.96494  0.56195     O
O      0.32104  0.22794  0.07749     O
O      0.32104  0.27214  0.57749     O
C      0.32304  0.73824  0.54191     C
C      0.32304  0.76184  0.04191     C
C      0.32344  0.50244  0.55605     C
C      0.32344  0.99764  0.05605     C
C      0.44544  0.11964  0.92667     C
C      0.44544  0.38044  0.42667     C
H      0.46793  0.18306  0.44142     H
H      0.46793  0.31694  0.94142     H
H      0.47223  0.57692   0.4155     H
H      0.47223  0.92308   0.9155     H
C      0.47674  0.50344  0.57303     C
C      0.47674  0.99664  0.07303     C
C      0.47894  0.73654  0.55815     C
C      0.47894  0.76354  0.05815     C
C      0.52114  0.23654  0.94185     C
C      0.52114  0.26354  0.44185     C
C      0.52334  0.00344  0.92697     C
C      0.52334  0.49664  0.42697     C
H      0.52777  0.07692   0.0845     H
H      0.52777  0.42308   0.5845     H
H      0.53207  0.68306  0.05858     H
H      0.53207  0.81694  0.55858     H
C      0.55464  0.61964  0.57333     C
C      0.55464  0.88044  0.07333     C
C      0.67664  0.00244  0.94395     C
C      0.67664  0.49764  0.44395     C
C      0.67704  0.23824  0.95809     C
C      0.67704  0.26184  0.45809     C
O      0.67904  0.72794  0.42251     O
O      0.67904  0.77214  0.92251     O
O      0.69474  0.03514  0.43805     O
O      0.69474  0.46494  0.93805     O
C      0.72104  0.61424  0.58981     C
C      0.72104  0.88584  0.08981     C
H       0.7526  0.52122   0.5973     H
H       0.7526  0.97878   0.0973     H
C      0.75454  0.11874  0.96106     C
C      0.75454  0.38134  0.46106     C
C      0.75514  0.62924  0.44356     C
C      0.75514  0.87084  0.94356     C
C      0.75724  0.13364  0.46604     C
C      0.75724  0.36644  0.96604     C
O      0.76134  0.60722   0.8272     O
O      0.76134  0.89282   0.3272     O
H      0.76299  0.64765  0.55401     H
H      0.76299  0.85234  0.05401     H
N      0.76434  0.64084  0.70118     N
N      0.76434  0.85924  0.20118     N
N      0.77844  0.69294  0.64563     N
N      0.77844  0.80714  0.14563     N
O      0.83044  0.64104  0.04353     O
O      0.83044  0.85904  0.54353     O
C      0.83934  0.72424  0.74378     C
C      0.83934  0.77584  0.24378     C
C      0.84724  0.69144  0.81087     C
C      0.84724  0.80864  0.31087     C
C      0.85774  0.69494   0.1513     C
C      0.85774  0.80514   0.6513     C
H       0.8582  0.11688  0.97448     H
H       0.8582  0.38312  0.47448     H
Tb     0.88343   0.6254   0.9403    Tb
Tb     0.88343   0.8746   0.4403    Tb
O      0.88734  0.12684   0.4968     O
O      0.88734  0.37324   0.9968     O
O      0.89104  0.63744  0.46478     O
O      0.89104  0.86264  0.96478     O
C      0.89604  0.61694  0.09755     C
C      0.89604  0.88314  0.59755     C
C      0.90044  0.67204  0.21479     C
C      0.90044  0.82804  0.71479     C
O      0.94344  0.74964  0.35131     O
O      0.94344  0.75044  0.85131     O
H      0.95856  0.60111  0.23441     H
H      0.95856  0.89888  0.73442     H
O      0.99414  0.52994  0.11302     O
O      0.99414  0.97014  0.61302     O
