data_I
_chemical_name_common  '/home/zhangsd/repos/MofS-CGCNN/CGCNN_MT/data/WS24v2_external_test/clean_cifs/val_27'
_cell_length_a 10.71730
_cell_length_b 18.46580
_cell_length_c 12.86480
_cell_angle_alpha 90.00000
_cell_angle_beta  108.06600
_cell_angle_gamma 90.00000
_space_group_name_H-M_alt      'P 1'


loop_
_space_group_symop_operation_xyz
  'x, y, z' 

loop_
_atom_site_label
_atom_site_fract_x
_atom_site_fract_y
_atom_site_fract_z
_atom_site_type_symbol
C      0.00048  0.74945  0.67367     C
O      0.01907  0.74704  0.77605     O
C      0.03829  0.92855  0.02807     C
C      0.04178  0.56895  0.04117     C
C      0.04538  0.43825  0.06467     C
O      0.05267  0.20824  0.58775     O
C      0.05539  0.05595  0.07267     C
C      0.06628  0.77525  0.42717     C
H      0.07919  0.25344  0.78154     H
C      0.08608  0.50704  0.10497     C
C      0.09129  0.85355  0.05147     C
O      0.09277  0.65894  0.18195     O
C      0.09279  0.98375  0.09957     C
C      0.10188  0.63974  0.09077     C
C      0.10368  0.37325  0.13167     C
O      0.10517  0.82624  0.14295     O
O      0.10867  0.31464  0.08285     O
O      0.11437  0.25394  0.39205     O
O      0.11957  0.77184  0.35495     O
C      0.12038  0.75495  0.64007     C
C      0.12269  0.11695  0.14447     C
O      0.12717  0.82414  0.97655     O
O      0.13227  0.11884  0.24505     O
H       0.1449  0.51221  0.17693     H
C      0.14538  0.76265  0.54107     C
O      0.15007  0.37804  0.23295     O
H       0.1562  0.97292  0.16773     H
O      0.16028  0.35424  0.58907     O
O      0.16837  0.67634  0.04605     O
C      0.17019  0.25515  0.82127     C
O      0.17037  0.16624  0.10175     O
H      0.17151  0.26604  0.97489     H
N      0.21827  0.26224  0.92967     N
O      0.21989  0.61754  0.85698     O
Tb     0.23103    0.249  0.24845    Tb
N      0.23687  0.75064  0.72327     N
Tb     0.24155  0.73876  0.91684    Tb
Tb     0.25845  0.23876  0.58316    Tb
N      0.26327  0.25064  0.77687     N
Tb     0.26897    0.749  0.25155    Tb
O      0.28029  0.11754  0.64318     O
N      0.28187  0.76224  0.57047     N
H      0.32849  0.76604  0.52511     H
O      0.32977  0.66624  0.39835     O
C      0.32999  0.75515  0.67887     C
O      0.33177  0.17634  0.45405     O
O      0.33988  0.85424  0.91107     O
H      0.34381  0.47292  0.33227     H
O      0.35007  0.87804  0.26715     O
C      0.35478  0.26265  0.95907     C
H       0.3551  0.01221  0.32307     H
O      0.36787  0.61884  0.25505     O
O      0.37297  0.32414  0.52345     O
C      0.37749  0.61695  0.35567     C
C      0.37978  0.25495  0.86007     C
O      0.38057  0.27184  0.14515     O
O      0.38577  0.75394  0.10805     O
O      0.39147  0.81464  0.41725     O
O      0.39497  0.32624  0.35715     O
C      0.39648  0.87325  0.36847     C
C      0.39828  0.13974  0.40937     C
O      0.40737  0.15894  0.31815     O
C      0.40739  0.48375  0.40057     C
C      0.40889  0.35355  0.44867     C
C      0.41408  0.00704  0.39517     C
H      0.42081  0.75345  0.71846     H
C      0.43388  0.27525  0.07297     C
C      0.44479  0.55595  0.42747     C
O      0.44747  0.70824  0.91225     O
C      0.45478  0.93825  0.43547     C
C      0.45838  0.06895  0.45897     C
C      0.46189  0.42855  0.47207     C
O      0.48107  0.24704  0.72405     O
C      0.49968  0.24945  0.82647     C
C      0.50048  0.75065  0.17367     C
O      0.51907  0.75304  0.27605     O
C      0.53829  0.57155  0.52807     C
C      0.54178  0.93115  0.54117     C
C      0.54538  0.06185  0.56467     C
O      0.55267  0.29184  0.08775     O
C      0.55539  0.44415  0.57267     C
C      0.56628  0.72485  0.92703     C
H      0.57918  0.24655  0.28154     H
C      0.58608  0.99304  0.60497     C
C      0.59129  0.64655  0.55147     C
O      0.59277  0.84114  0.68195     O
C      0.59279  0.51635  0.59957     C
C      0.60188  0.86034  0.59077     C
C      0.60368  0.12685  0.63167     C
O      0.60517  0.67384  0.64295     O
O      0.60867  0.18544  0.58285     O
O      0.61437  0.24614  0.89195     O
O      0.61957  0.72824  0.85485     O
C      0.62038  0.74515  0.14007     C
C      0.62269  0.38315  0.64447     C
O      0.62717  0.67594  0.47665     O
O      0.63227  0.38124  0.74505     O
H       0.6449  0.98779  0.67693     H
C      0.64538  0.73745  0.04107     C
O      0.65007  0.12204  0.73295     O
H      0.65619  0.52707  0.66773     H
O      0.66028  0.14584  0.08907     O
O      0.66837  0.82374  0.54605     O
C      0.67019  0.24495  0.32127     C
O      0.67037  0.33384  0.60175     O
H      0.67151  0.23396   0.4749     H
N      0.71827  0.23784  0.42967     N
O      0.71989  0.88254  0.35698     O
Tb     0.73103    0.251  0.74845    Tb
N      0.73687  0.74944  0.22327     N
Tb     0.74155  0.76124  0.41684    Tb
Tb     0.75845  0.26124  0.08316    Tb
N      0.76327  0.24944  0.27687     N
Tb     0.76897    0.751  0.75155    Tb
O      0.78029  0.38254  0.14318     O
N      0.78187  0.73784  0.07047     N
H      0.82849  0.73396   0.0251     H
O      0.82963  0.83384  0.89825     O
C      0.82999  0.74495  0.17887     C
O      0.83177  0.32374  0.95395     O
O      0.83988  0.64584  0.41107     O
H      0.84381  0.02707  0.83227     H
O      0.85007  0.62204  0.76715     O
C      0.85478  0.23745  0.45907     C
H       0.8551  0.48779  0.82307     H
O      0.86773  0.88124  0.75495     O
O      0.87283  0.17594  0.02345     O
C      0.87731  0.88315  0.85553     C
C      0.87978  0.24515  0.36007     C
O      0.88057  0.22824  0.64515     O
O      0.88563  0.74614  0.60805     O
O      0.89147  0.68544  0.91725     O
O      0.89483  0.17384  0.85705     O
C      0.89648  0.62685  0.86847     C
C      0.89828  0.36034  0.90937     C
C      0.90721  0.01635  0.90043     C
O      0.90737  0.34114  0.81815     O
C      0.90871  0.14655  0.94853     C
C      0.91408  0.49304  0.89517     C
H      0.92082  0.74655  0.21846     H
C      0.93388  0.22485  0.57297     C
C      0.94461  0.94415  0.92733     C
O      0.94733  0.79184  0.41235     O
C      0.95478  0.56185  0.93547     C
C      0.95838  0.43115  0.95897     C
C      0.96171  0.07155  0.97193     C
O      0.98093  0.25304  0.22405     O
C      0.99968  0.25065  0.32647     C
