data_I
_chemical_name_common  '/home/zhangsd/repos/MofS-CGCNN/CGCNN_MT/data/WS24v2_external_test/clean_cifs/val_28'
_cell_length_a 12.75300
_cell_length_b 16.42340
_cell_length_c 27.48130
_cell_angle_alpha 90.00000
_cell_angle_beta  91.27440
_cell_angle_gamma 90.00000
_space_group_name_H-M_alt      'P 1'


loop_
_space_group_symop_operation_xyz
  'x, y, z' 

loop_
_atom_site_label
_atom_site_fract_x
_atom_site_fract_y
_atom_site_fract_z
_atom_site_type_symbol
H       0.0017   0.3557   0.5288     H
C      0.00714  0.36804  0.49512     C
H       0.0078   0.1369    0.475     H
C      0.00894  0.13022  0.50938     C
C      0.01044  0.11184  0.60854     C
H       0.0124   0.1069    0.643     H
S      0.01578  0.97794  0.74654     S
H       0.0171   0.1584   0.0235     H
S       0.0171  0.52449  0.23892     S
C      0.02044  0.94014  0.07715     C
C      0.02194  0.40334  0.39881     C
H       0.0259   0.3509    0.978     H
C      0.02774  0.57234   0.9179     C
H       0.0292   0.4143   0.3651     H
C      0.03014  0.14054  0.99135     C
C      0.03074  0.86524  0.67235     C
H       0.0316   0.3476   0.6946     H
H       0.0322   0.1584   0.3163     H
C      0.03314  0.62974  0.31656     C
C      0.03334  0.62434  0.15839     C
C      0.03384  0.36234  0.01177     C
C      0.03544  0.88734  0.83006     C
H        0.038    0.122   0.1727     H
H       0.0396   0.3654   0.8387     H
C      0.04094  0.58944  0.96637     C
C      0.04134  0.91204  0.03089     C
O      0.04142  0.06342  0.74625     O
O      0.04452  0.43928  0.23636     O
H       0.0516   0.7863   0.6164     H
H       0.0536   0.6944   0.0984     H
H       0.0547   0.7046   0.3749     H
C      0.05634  0.56014  0.57591     C
C      0.05814  0.39724  0.10783     C
H       0.0608   0.8206   0.8921     H
C      0.06464  0.92854  0.41849     C
C      0.06534  0.57784  0.52613     C
C      0.06594  0.91954  0.46982     C
H       0.0665   0.9776   0.0929     H
C      0.06814  0.08714   0.8999     C
H       0.0683   0.4089   0.1415     H
C      0.07314  0.93494  0.69504     C
C      0.07714  0.56414   0.2927     C
H       0.0776   0.5394   0.9019     H
C      0.08154  0.83154  0.63324     C
H       0.0829   0.0694   0.8679     H
N      0.08294  0.16932  0.53614     N
C      0.08384  0.16024  0.58519     C
N      0.08394  0.33262  0.46989     N
C      0.08494  0.57424  0.19158     C
C      0.08524  0.66144  0.35707     C
C      0.08634  0.93444   0.7959     C
C      0.08844  0.65934  0.12105     C
C      0.09114  0.34974  0.42241     C
O      0.09142  0.45302  0.76358     O
O      0.09192  0.04622  0.25132     O
C      0.09414  0.85384  0.86867     C
H       0.1036   0.5235   0.5917     H
H       0.1149    0.962   0.4031     H
N      0.11664  0.33102   0.0361     N
N      0.11724  0.16742   0.9694     N
H       0.1211   0.5593   0.0315     H
C      0.12594  0.55604  0.99709     C
C      0.12874  0.34924  0.08317     C
C      0.13034  0.93894   0.0024     C
H        0.132   0.9606   0.5357     H
H       0.1322   0.9255   0.9688     H
C      0.13494  0.14024  0.92407     C
H       0.1359   0.1876   0.6042     H
O      0.13742  0.34782  0.58469     O
H         0.14   0.5495   0.4612     H
C      0.14344  0.95864  0.50167     C
H       0.1448   0.3247   0.4043     H
C      0.14564  0.54332  0.49548     C
O      0.14734  0.16242  0.42529     O
O      0.15702  0.15812  0.08636     O
O      0.16492  0.33612   0.9214     O
C      0.16574  0.96904  0.67876     C
C      0.17134  0.52894  0.30861     C
C      0.17694  0.86394  0.61852     C
H       0.1776   0.4274   0.6582     H
C      0.18234  0.63004  0.37158     C
H       0.1833   0.0808   0.3535     H
Zn     0.18371  0.25044   0.5038    Zn
H       0.1882   0.3284   0.1005     H
O      0.18862  0.78342  0.54708     O
C      0.19114  0.55794  0.18769     C
H       0.1925   0.0173   0.6935     H
C      0.19334  0.94984  0.80048     C
C      0.19524  0.64314  0.11659     C
H       0.1959   0.1584   0.9081     H
O      0.19592  0.71072  0.44257     O
H       0.1984   0.4823   0.2927     H
C      0.20184  0.86914   0.8729     C
N      0.20614  0.98042  0.02175     N
N      0.20684  0.52232  0.97867     N
O      0.20884  0.72112  0.04482     O
H       0.2109   0.0404   0.1418     H
Zn     0.21427  0.24924   0.0034    Zn
H       0.2175   0.4559   0.8683     H
C      0.21784  0.93354  0.64184     C
O      0.22062  0.78672  0.94334     O
N      0.22394  0.50472  0.51422     N
C      0.22394  0.56274  0.34749     C
H       0.2263   0.5237   0.2106     H
H       0.2273   0.9828   0.7772     H
N      0.22794  0.99092  0.48457     N
C      0.23194  0.33224  0.58645     C
C      0.24004  0.82584  0.57896     C
C      0.24194  0.17684  0.42364     C
C      0.24434  0.59234  0.14981     C
C      0.24694  0.66754   0.4122     C
C      0.24934  0.91694  0.83877     C
C      0.25074  0.41694  0.66123     C
C      0.25314  0.16754   0.0878     C
C      0.25574  0.09234  0.35019     C
C      0.25814  0.67684  0.07636     C
C      0.26004  0.32584  0.92104     C
C      0.26814  0.83224  0.91355     C
N      0.27214  0.49092  0.01543     N
H       0.2727   0.4828   0.7228     H
H       0.2737   0.0237   0.2894     H
N      0.27614  0.00472  0.98578     N
C      0.27614  0.06274  0.15251     C
O      0.27942  0.28672  0.55666     O
C      0.28224  0.43354  0.85816     C
H       0.2825   0.9559   0.6317     H
Zn     0.28573  0.74924   0.4966    Zn
H       0.2891   0.5404   0.3582     H
O      0.29124  0.22112  0.45518     O
N      0.29324  0.02232  0.52133     N
N      0.29394  0.48042  0.47825     N
C      0.29824  0.36914   0.6271     C
H       0.3016   0.9823   0.2073     H
H       0.3041   0.6584   0.5919     H
O      0.30412  0.21072  0.05743     O
C      0.30484  0.14314  0.38341     C
C      0.30674  0.44984  0.69952     C
H       0.3075   0.5173   0.8065     H
C      0.30894  0.05794  0.31231     C
O      0.31142  0.28342  0.95292     O
H       0.3118   0.8284   0.3995     H
Zn     0.31629  0.75044   0.9962    Zn
H       0.3167   0.5808   0.1465     H
C      0.31774  0.13004  0.12842     C
H       0.3224   0.9274   0.8418     H
C      0.32314  0.36394  0.88148     C
C      0.32874  0.02894  0.19139     C
C      0.33434  0.46904  0.82124     C
O      0.33512  0.83612   0.5786     O
O      0.34302  0.65812  0.41364     O
O      0.35274  0.66242  0.07471     O
C      0.35444  0.04332  0.00452     C
H       0.3552   0.8247   0.0957     H
C      0.35664  0.45864  0.99833     C
H         0.36   0.0495   0.0388     H
O      0.36262  0.84782  0.91531     O
H       0.3641   0.6876   0.8958     H
C      0.36514  0.64024  0.57593     C
H       0.3678   0.4255   0.5312     H
H        0.368   0.4606   0.9643     H
C      0.36974  0.43894   0.4976     C
C      0.37134  0.84924  0.41683     C
C      0.37414  0.05604  0.50291     C
H       0.3789   0.0593   0.4685     H
N      0.38284  0.66742   0.5306     N
N      0.38344  0.83102   0.4639     N
H       0.3851    0.462   0.0969     H
H       0.3964   0.0235   0.9083     H
C      0.40594  0.35384  0.63133     C
O      0.40812  0.54622  0.24868     O
O      0.40862  0.95302  0.73642     O
C      0.40894  0.84974  0.07759     C
C      0.41164  0.15934  0.37895     C
C      0.41374  0.43444   0.7041     C
C      0.41484  0.16144  0.14293     C
C      0.41514  0.07424  0.30842     C
N      0.41614  0.83262  0.03011     N
C      0.41624  0.66024  0.91481     C
H       0.4171   0.5694   0.6321     H
N      0.41714  0.66932  0.96386     N
C      0.41854  0.33154  0.86676     C
H       0.4224   0.0394   0.5981     H
C      0.42294  0.06414   0.2073     C
C      0.42694  0.43494  0.80496     C
H       0.4317   0.9089   0.3585     H
C      0.43194  0.58714   0.6001     C
H       0.4335   0.4776   0.4071     H
C      0.43414  0.41954  0.03018     C
C      0.43474  0.07784  0.97387     C
C      0.43544  0.42854  0.08151     C
H       0.4392   0.3206   0.6079     H
C      0.44194  0.89724  0.39217     C
C      0.44374  0.06014  0.92409     C
H       0.4453   0.2046   0.1251     H
H       0.4464   0.1944   0.4016     H
H       0.4484   0.2863   0.8836     H
O      0.45552  0.93928  0.26364     O
O      0.45862  0.56342  0.75375     O
C      0.45874  0.41204  0.46911     C
C      0.45914  0.08944  0.53363     C
H       0.4604   0.8654   0.6613     H
H        0.462    0.622   0.3273     H
C      0.46464  0.38734  0.66994     C
C      0.46624  0.86234  0.48823     C
C      0.46674  0.12434  0.34161     C
C      0.46694  0.12974  0.18344     C
H       0.4678   0.6584   0.1837     H
H       0.4684   0.8476   0.8054     H
C      0.46934  0.36524  0.82765     C
C      0.46994  0.64054  0.50865     C
H       0.4708   0.9143   0.1349     H
C      0.47234  0.07234   0.5821     C
H       0.4741   0.8509    0.522     H
C      0.47814  0.90334  0.10119     C
C      0.47964  0.44014  0.42285     C
H       0.4829   0.6584   0.4765     H
S      0.48292  0.02449  0.26108     S
S      0.48424  0.47794  0.75346     S
H       0.4876   0.6069    0.857     H
C      0.48964  0.61184  0.89146     C
C      0.49114  0.63022  0.99062     C
H       0.4922   0.6369    0.025     H
C      0.49294  0.86804  0.00488     C
H       0.4983   0.8557   0.9712     H
H       0.5017   0.1443   0.0288     H
C      0.50714  0.13204  0.99512     C
H       0.5078   0.3631    0.975     H
C      0.50894  0.36982  0.00938     C
C      0.51044  0.38824  0.10854     C
H       0.5124   0.3931    0.143     H
S      0.51578  0.52208  0.24654     S
H       0.5171   0.3416   0.5235     H
S       0.5171  0.97553  0.73892     S
C      0.52044  0.55994  0.57715     C
C      0.52194  0.09674  0.89881     C
H       0.5259   0.1491    0.478     H
C      0.52774  0.92774   0.4179     C
H       0.5292   0.0857   0.8651     H
C      0.53014  0.35954  0.49135     C
C      0.53074  0.63484  0.17235     C
H       0.5316   0.1524   0.1946     H
H       0.5322   0.3416   0.8163     H
C      0.53314  0.87034  0.81656     C
C      0.53334  0.87574  0.65839     C
C      0.53384  0.13774  0.51177     C
C      0.53544  0.61274  0.33006     C
H        0.538    0.378   0.6727     H
H       0.5396   0.1346   0.3387     H
C      0.54094  0.91064  0.46637     C
C      0.54134  0.58804  0.53089     C
O      0.54142  0.43662  0.24625     O
O      0.54452  0.06072  0.73636     O
H       0.5516   0.7137   0.1164     H
H       0.5536   0.8056   0.5984     H
H       0.5547   0.7954   0.8749     H
C      0.55634  0.93994  0.07591     C
C      0.55814  0.10284  0.60783     C
H       0.5608   0.6794   0.3921     H
C      0.56464  0.57154  0.91849     C
C      0.56534  0.92224  0.02613     C
C      0.56594  0.58054  0.96982     C
H       0.5665   0.5224   0.5929     H
C      0.56814  0.41294   0.3999     C
H       0.5683   0.0911   0.6415     H
C      0.57314  0.56514  0.19504     C
C      0.57714  0.93594   0.7927     C
H       0.5776   0.9606   0.4019     H
C      0.58154  0.66854  0.13324     C
H       0.5829   0.4306   0.3679     H
N      0.58294  0.33072  0.03614     N
C      0.58384  0.33984  0.08519     C
N      0.58394  0.16742  0.96989     N
C      0.58494  0.92584  0.69158     C
C      0.58524  0.83864  0.85707     C
C      0.58634  0.56564   0.2959     C
C      0.58844  0.84074  0.62105     C
C      0.59114  0.15034  0.92241     C
O      0.59142  0.04702  0.26358     O
O      0.59192  0.45382  0.75132     O
C      0.59414  0.64624  0.36867     C
H       0.6036   0.9765   0.0917     H
H       0.6149    0.538   0.9031     H
N      0.61664  0.16902   0.5361     N
N      0.61724  0.33262   0.4694     N
H       0.6211   0.9407   0.5315     H
C      0.62594  0.94404  0.49709     C
C      0.62874  0.15084  0.58317     C
C      0.63034  0.56114   0.5024     C
H        0.632   0.5394   0.0357     H
H       0.6322   0.5745   0.4688     H
C      0.63494  0.35984  0.42407     C
H       0.6359   0.3124   0.1042     H
O      0.63742  0.15222  0.08469     O
H         0.64   0.9505   0.9612     H
C      0.64344  0.54144  0.00167     C
H       0.6448   0.1753   0.9043     H
C      0.64564  0.95672  0.99548     C
O      0.64734  0.33762  0.92529     O
O      0.65702  0.34192  0.58636     O
O      0.66492  0.16392   0.4214     O
C      0.66574  0.53104  0.17876     C
C      0.67134  0.97114  0.80861     C
C      0.67694  0.63614  0.11852     C
H       0.6776   0.0726   0.1582     H
C      0.68234  0.87004  0.87158     C
H       0.6833   0.4192   0.8535     H
Zn     0.68371  0.24956   0.0038    Zn
H       0.6882   0.1716   0.6005     H
O      0.68862  0.71662  0.04708     O
C      0.69114  0.94214  0.68769     C
H       0.6925   0.4827   0.1935     H
C      0.69334  0.55024  0.30048     C
C      0.69524  0.85694  0.61659     C
H       0.6959   0.3416   0.4081     H
O      0.69592  0.78932  0.94257     O
H       0.6984   0.0177   0.7927     H
C      0.70184  0.63094   0.3729     C
N      0.70614  0.51962  0.52175     N
N      0.70684  0.97772  0.47867     N
O      0.70884  0.77892  0.54482     O
H       0.7109   0.4596   0.6418     H
Zn     0.71427  0.25076   0.5034    Zn
H       0.7175   0.0441   0.3683     H
C      0.71784  0.56654  0.14184     C
O      0.72062  0.71332  0.44334     O
C      0.72394  0.93734  0.84749     C
N      0.72394  0.99532  0.01422     N
H       0.7263   0.9763   0.7106     H
H       0.7273   0.5172   0.2772     H
N      0.72794  0.50912  0.98457     N
C      0.73194  0.16784  0.08645     C
C      0.74004  0.67424  0.07896     C
C      0.74194  0.32324  0.92364     C
C      0.74434  0.90774  0.64981     C
C      0.74694  0.83254   0.9122     C
C      0.74934  0.58314  0.33877     C
C      0.75074  0.08314  0.16123     C
C      0.75314  0.33254   0.5878     C
C      0.75574  0.40774  0.85019     C
C      0.75814  0.82324  0.57636     C
C      0.76004  0.17424  0.42104     C
C      0.76814  0.66784  0.41355     C
N      0.77214  0.00912  0.51543     N
H       0.7727   0.0172   0.2228     H
H       0.7737   0.4763   0.7894     H
C      0.77614  0.43734  0.65251     C
N      0.77614  0.49532  0.48578     N
O      0.77942  0.21332  0.05666     O
C      0.78224  0.06654  0.35816     C
H       0.7825   0.5441   0.1317     H
Zn     0.78573  0.75076   0.9966    Zn
H       0.7891   0.9596   0.8582     H
O      0.79124  0.27892  0.95518     O
N      0.79324  0.47772  0.02133     N
N      0.79394  0.01962  0.97825     N
C      0.79824  0.13094   0.1271     C
H       0.8016   0.5177   0.7073     H
H       0.8041   0.8416   0.0919     H
O      0.80412  0.28932  0.55743     O
C      0.80484  0.35694  0.88341     C
C      0.80674  0.05024  0.19952     C
H       0.8075   0.9827   0.3065     H
C      0.80894  0.44214  0.81231     C
O      0.81142  0.21662  0.45292     O
H       0.8118   0.6716   0.8995     H
Zn     0.81629  0.74956   0.4962    Zn
H       0.8167   0.9192   0.6465     H
C      0.81774  0.37004  0.62842     C
H       0.8224   0.5726   0.3418     H
C      0.82314  0.13614  0.38148     C
C      0.82874  0.47114  0.69139     C
C      0.83434  0.03104  0.32124     C
O      0.83512  0.66392   0.0786     O
O      0.84302  0.84192  0.91364     O
O      0.85274  0.83762  0.57471     O
C      0.85444  0.45672  0.50452     C
H       0.8552   0.6753   0.5957     H
C      0.85664  0.04144  0.49833     C
H         0.86   0.4505   0.5388     H
O      0.86262  0.65222  0.41531     O
H       0.8641   0.8124   0.3958     H
C      0.86514  0.85984  0.07593     C
H       0.8678   0.0745   0.0312     H
H        0.868   0.0394   0.4643     H
C      0.86974  0.06114   0.9976     C
C      0.87134  0.65084  0.91683     C
C      0.87414  0.44404  0.00291     C
H       0.8789   0.4407   0.9685     H
N      0.88284  0.83262   0.0306     N
N      0.88344  0.66902   0.9639     N
H       0.8851    0.038   0.5969     H
H       0.8964   0.4765   0.4083     H
C      0.90594  0.14624  0.13133     C
O      0.90812  0.95382  0.74868     O
O      0.90862  0.54702  0.23642     O
C      0.90894  0.65034  0.57759     C
C      0.91164  0.34074  0.87895     C
C      0.91374  0.06564   0.2041     C
C      0.91484  0.33864  0.64293     C
C      0.91514  0.42584  0.80842     C
N      0.91614  0.66742  0.53011     N
C      0.91624  0.83984  0.41481     C
H       0.9171   0.9306   0.1321     H
N      0.91714  0.83072  0.46386     N
C      0.91854  0.16854  0.36676     C
H       0.9224   0.4606   0.0981     H
C      0.92294  0.43594   0.7073     C
C      0.92694  0.06514  0.30496     C
H       0.9317   0.5911   0.8585     H
C      0.93194  0.91294   0.1001     C
H       0.9335   0.0224   0.9071     H
C      0.93414  0.08054  0.53018     C
C      0.93474  0.42224  0.47387     C
C      0.93544  0.07154  0.58151     C
H       0.9392   0.1794   0.1079     H
C      0.94194  0.60284  0.89217     C
C      0.94374  0.43994  0.42409     C
H       0.9453   0.2954   0.6251     H
H       0.9464   0.3056   0.9016     H
H       0.9484   0.2137   0.3836     H
O      0.95552  0.56072  0.76364     O
O      0.95862  0.93662  0.25375     O
C      0.95874  0.08804  0.96911     C
C      0.95914  0.41064  0.03363     C
H       0.9604   0.6346   0.1613     H
H        0.962    0.878   0.8273     H
C      0.96464  0.11274  0.16994     C
C      0.96624  0.63774  0.98823     C
C      0.96674  0.37574  0.84161     C
C      0.96694  0.37034  0.68344     C
H       0.9678   0.8416   0.6837     H
H       0.9684   0.6524   0.3054     H
C      0.96934  0.13484  0.32765     C
C      0.96994  0.85954  0.00865     C
H       0.9708   0.5857   0.6349     H
C      0.97234  0.42774   0.0821     C
H       0.9741   0.6491    0.022     H
C      0.97814  0.59674  0.60119     C
C      0.97964  0.05994  0.92285     C
H       0.9829   0.8416   0.9765     H
S      0.98292  0.47553  0.76108     S
S      0.98424  0.02208  0.25346     S
H       0.9876   0.8931    0.357     H
C      0.98964  0.88824  0.39146     C
C      0.99114  0.86982  0.49062     C
H       0.9922   0.8631    0.525     H
C      0.99294  0.63204  0.50488     C
H       0.9983   0.6443   0.4712     H
