data_I
_chemical_name_common  '/home/zhangsd/repos/MofS-CGCNN/CGCNN_MT/data/WS24v2_external_test/clean_cifs/val_19'
_cell_length_a 30.57720
_cell_length_b 10.01910
_cell_length_c 22.75240
_cell_angle_alpha 90.00000
_cell_angle_beta  123.29700
_cell_angle_gamma 90.00000
_space_group_name_H-M_alt      'P 1'


loop_
_space_group_symop_operation_xyz
  'x, y, z' 

loop_
_atom_site_label
_atom_site_fract_x
_atom_site_fract_y
_atom_site_fract_z
_atom_site_type_symbol
H       0.0198   0.3296    0.685     H
H       0.0198   0.6704    0.185     H
H       0.0205   0.2505   0.3748     H
H       0.0205   0.7495   0.8748     H
C      0.02161   0.4793  0.18861     C
C      0.02161   0.5213  0.68861     C
C      0.02789   0.4513  0.37811     C
C      0.02789   0.5493  0.87811     C
C      0.03969   0.4023  0.71271     C
C      0.03969   0.5983  0.21271     C
H       0.0415   0.4062   0.2156     H
H       0.0415   0.5938   0.7156     H
C      0.04221   0.3213  0.40141     C
C      0.04221   0.6793  0.90141     C
H       0.0535   0.3589   0.9069     H
H       0.0535   0.6411   0.4069     H
C      0.06171   0.4483  0.92051     C
C      0.06171   0.5523  0.42051     C
H       0.0784   0.1715   0.7721     H
H       0.0784   0.8285   0.2721     H
C      0.08819   0.3722  0.77951     C
C      0.08819   0.6282  0.27951     C
C      0.08891   0.2962  0.46451     C
C      0.08891   0.7042  0.96451     C
H       0.0982   0.2085   0.4791     H
H       0.0982   0.7915   0.9791     H
C      0.10071   0.2402  0.80061     C
C      0.10071   0.7602  0.30061     C
C      0.10729   0.4802  0.98261     C
C      0.10729   0.5202  0.48261     C
H       0.1168   0.4406   0.3118     H
H       0.1168   0.5594   0.8118     H
N      0.12147  0.39402  0.50559     N
N      0.12147  0.60602  0.00559     N
C      0.12349   0.4702  0.82381     C
C      0.12349   0.5302  0.32381     C
H       0.1295   0.4113   0.0102     H
H       0.1295   0.5887   0.5102     H
H       0.1353   0.4065   0.6419     H
H       0.1353   0.5935   0.1419     H
H       0.1417   0.2626   0.6475     H
H       0.1417   0.7374   0.1475     H
O      0.14417  0.13202  0.02159     O
O      0.14417  0.86802  0.52159     O
C      0.14619   0.2092  0.86371     C
C      0.14619   0.7912  0.36371     C
H       0.1536   0.1204   0.8771     H
H       0.1536   0.8796   0.3771     H
N      0.15907  0.34032  0.65648     N
N      0.15907  0.65972  0.15648     N
C      0.16848   0.4302  0.88581     C
C      0.16848   0.5702  0.38581     C
N      0.18017  0.30322  0.90688     N
N      0.18017  0.69682  0.40688     N
O      0.18727  0.14051  0.58148     O
O      0.18727  0.85951  0.08148     O
C      0.19058  0.11292  0.04481     C
C      0.19058  0.88712  0.54481     C
H       0.1919    0.496   0.9148     H
H       0.1919    0.504   0.4148     H
Ni     0.19233  0.34702  0.59526    Ni
Ni     0.19233  0.65302  0.09526    Ni
C      0.19498  0.35212  0.73081     C
C      0.19498  0.64792  0.23081     C
H       0.1987    0.446   0.2334     H
H       0.1987    0.554   0.7334     H
H       0.2039   0.1548   0.7533     H
H       0.2039   0.8452   0.2533     H
O      0.21045  0.08531  0.00867     O
O      0.21045  0.91471  0.50867     O
C      0.21238  0.47802  0.76121     C
C      0.21238  0.52202  0.26121     C
C      0.21488  0.23922  0.77321     C
C      0.21488  0.76082  0.27321     C
O      0.21897  0.46871  0.13427     O
O      0.21897  0.53131  0.63427     O
O      0.22527  0.36211  0.53468     O
O      0.22527  0.63791  0.03468     O
O      0.22867  0.37481  0.05357     O
O      0.22867  0.62521  0.55357     O
C      0.23027  0.12232  0.12409     C
C      0.23027  0.87772  0.62409     C
C      0.23097  0.37202  0.11091     C
C      0.23097  0.62802  0.61091     C
C      0.23128   0.1272  0.63821     C
C      0.23128   0.8732  0.13821     C
O      0.24277  0.27081  0.32867     O
O      0.24277  0.72921  0.82867     O
C      0.24908  0.24772  0.15481     C
C      0.24908  0.75232  0.65481     C
C      0.24977  0.49032  0.83289     C
C      0.24977  0.50972  0.33289     C
Ni        0.25     0.25      0.0    Ni
Ni        0.25     0.75      0.5    Ni
C      0.25037  0.00972  0.16729     C
C      0.25037  0.99032  0.66729     C
C      0.25108  0.25232  0.84521     C
C      0.25108  0.74772  0.34521     C
O      0.25737  0.22921  0.67147     O
O      0.25737  0.77081  0.17147     O
C      0.26888   0.3732  0.36181     C
C      0.26888   0.6272  0.86181     C
C      0.26917  0.12802  0.88911     C
C      0.26917  0.87202  0.38911     C
C      0.26987  0.37772  0.87609     C
C      0.26987  0.62232  0.37609     C
O      0.27147  0.12521  0.94657     O
O      0.27147  0.87481  0.44657     O
O      0.27487  0.13791  0.46548     O
O      0.27487  0.86211  0.96548     O
O      0.28117  0.03131  0.86587     O
O      0.28117  0.96871  0.36587     O
C      0.28528  0.26082  0.22681     C
C      0.28528  0.73922  0.72681     C
C      0.28778  0.02202  0.23881     C
C      0.28778  0.97802  0.73881     C
O      0.28965  0.41471  0.99147     O
O      0.28965  0.58531  0.49147     O
H       0.2961   0.3452   0.2467     H
H       0.2961   0.6548   0.7467     H
H       0.3013    0.054   0.7666     H
H       0.3013    0.946   0.2666     H
C      0.30518  0.14792  0.26921     C
C      0.30518  0.85212  0.76921     C
Ni     0.30767  0.15302  0.40474    Ni
Ni     0.30767  0.84702  0.90474    Ni
H       0.3081    0.004   0.0852     H
H       0.3081    0.996   0.5852     H
C      0.30958  0.38712  0.95521     C
C      0.30958  0.61292  0.45521     C
O      0.31287  0.35951  0.41868     O
O      0.31287  0.64051  0.91868     O
N      0.31997  0.19682  0.09328     N
N      0.31997  0.80322  0.59328     N
C      0.33168   0.0702  0.11421     C
C      0.33168   0.9302  0.61421     C
N      0.34107  0.15972  0.34368     N
N      0.34107  0.84032  0.84368     N
H       0.3464   0.3796   0.1229     H
H       0.3464   0.6204   0.6229     H
C      0.35399   0.2912  0.13631     C
C      0.35399   0.7092  0.63631     C
O      0.35597  0.36802  0.97859     O
O      0.35597  0.63202  0.47859     O
H       0.3583   0.2374   0.3525     H
H       0.3583   0.7626   0.8525     H
H       0.3647   0.0935   0.3581     H
H       0.3647   0.9065   0.8581     H
H       0.3705   0.0887   0.9898     H
H       0.3705   0.9113   0.4898     H
C      0.37669   0.0302  0.17621     C
C      0.37669   0.9702  0.67621     C
N      0.37867  0.10602  0.49459     N
N      0.37867  0.89402  0.99459     N
H       0.3832   0.0594   0.6882     H
H       0.3832   0.9406   0.1882     H
C      0.39289   0.0202  0.01741     C
C      0.39289   0.9802  0.51741     C
C      0.39931   0.2602  0.19941     C
C      0.39931   0.7402  0.69941     C
H       0.4018   0.2915   0.5209     H
H       0.4018   0.7085   0.0209     H
C      0.41111   0.2042  0.53551     C
C      0.41111   0.7962  0.03551     C
C      0.41199   0.1282  0.22051     C
C      0.41199   0.8722  0.72051     C
H       0.4216   0.3285   0.2279     H
H       0.4216   0.6715   0.7279     H
C      0.43831   0.0523  0.07951     C
C      0.43831   0.9483  0.57951     C
H       0.4465   0.1411   0.0931     H
H       0.4465   0.8589   0.5931     H
C      0.45781   0.1793  0.59861     C
C      0.45781   0.8213  0.09861     C
H       0.4585   0.0938   0.7844     H
H       0.4585   0.9062   0.2844     H
C      0.46049   0.0983  0.28731     C
C      0.46049   0.9023  0.78731     C
C      0.47229   0.0493  0.62191     C
C      0.47229   0.9513  0.12191     C
C      0.47841   0.0213  0.81141     C
C      0.47841   0.9793  0.31141     C
H       0.4795   0.2495   0.6252     H
H       0.4795   0.7505   0.1252     H
H       0.4802   0.1704    0.315     H
H       0.4802   0.8296    0.815     H
H       0.5198   0.1704    0.185     H
H       0.5198   0.8296    0.685     H
H       0.5205   0.2495   0.8748     H
H       0.5205   0.7505   0.3748     H
C      0.52161   0.0213  0.68861     C
C      0.52161   0.9793  0.18861     C
C      0.52789   0.0493  0.87811     C
C      0.52789   0.9513  0.37811     C
C      0.53969   0.0983  0.21271     C
C      0.53969   0.9023  0.71271     C
H       0.5415   0.0938   0.7156     H
H       0.5415   0.9062   0.2156     H
C      0.54221   0.1793  0.90141     C
C      0.54221   0.8213  0.40141     C
H       0.5535   0.1411   0.4069     H
H       0.5535   0.8589   0.9069     H
C      0.56171   0.0523  0.42051     C
C      0.56171   0.9483  0.92051     C
H       0.5784   0.3285   0.2721     H
H       0.5784   0.6715   0.7721     H
C      0.58819   0.1282  0.27951     C
C      0.58819   0.8722  0.77951     C
C      0.58891   0.2042  0.96451     C
C      0.58891   0.7962  0.46451     C
H       0.5982   0.2915   0.9791     H
H       0.5982   0.7085   0.4791     H
C      0.60071   0.2602  0.30061     C
C      0.60071   0.7402  0.80061     C
C      0.60729   0.0202  0.48261     C
C      0.60729   0.9802  0.98261     C
H       0.6168   0.0594   0.8118     H
H       0.6168   0.9406   0.3118     H
N      0.62147  0.10602  0.00559     N
N      0.62147  0.89402  0.50559     N
C      0.62349   0.0302  0.32381     C
C      0.62349   0.9702  0.82381     C
H       0.6295   0.0887   0.5102     H
H       0.6295   0.9113   0.0102     H
H       0.6353   0.0935   0.1419     H
H       0.6353   0.9065   0.6419     H
H       0.6417   0.2374   0.1475     H
H       0.6417   0.7626   0.6475     H
O      0.64417  0.36802  0.52159     O
O      0.64417  0.63202  0.02159     O
C      0.64619   0.2912  0.36371     C
C      0.64619   0.7092  0.86371     C
H       0.6536   0.3796   0.3771     H
H       0.6536   0.6204   0.8771     H
N      0.65907  0.15972  0.15648     N
N      0.65907  0.84032  0.65648     N
C      0.66848   0.0702  0.38581     C
C      0.66848   0.9302  0.88581     C
N      0.68017  0.19682  0.40688     N
N      0.68017  0.80322  0.90688     N
O      0.68727  0.35951  0.08148     O
O      0.68727  0.64051  0.58148     O
C      0.69058  0.38712  0.54481     C
C      0.69058  0.61292  0.04481     C
H       0.6919    0.004   0.4148     H
H       0.6919    0.996   0.9148     H
Ni     0.69233  0.15302  0.09526    Ni
Ni     0.69233  0.84702  0.59526    Ni
C      0.69498  0.14792  0.23081     C
C      0.69498  0.85212  0.73081     C
H       0.6987    0.054   0.7334     H
H       0.6987    0.946   0.2334     H
H       0.7039   0.3452   0.2533     H
H       0.7039   0.6548   0.7533     H
O      0.71045  0.41471  0.50867     O
O      0.71045  0.58531  0.00867     O
C      0.71238  0.02202  0.26121     C
C      0.71238  0.97802  0.76121     C
C      0.71488  0.26082  0.27321     C
C      0.71488  0.73922  0.77321     C
O      0.71897  0.03131  0.63427     O
O      0.71897  0.96871  0.13427     O
O      0.72527  0.13791  0.03468     O
O      0.72527  0.86211  0.53468     O
O      0.72867  0.12521  0.55357     O
O      0.72867  0.87481  0.05357     O
C      0.73027  0.37772  0.62409     C
C      0.73027  0.62232  0.12409     C
C      0.73097  0.12802  0.61091     C
C      0.73097  0.87202  0.11091     C
C      0.73128   0.3732  0.13821     C
C      0.73128   0.6272  0.63821     C
O      0.74277  0.22921  0.82867     O
O      0.74277  0.77081  0.32867     O
C      0.74908  0.25232  0.65481     C
C      0.74908  0.74772  0.15481     C
C      0.74977  0.00972  0.33289     C
C      0.74977  0.99032  0.83289     C
Ni        0.75     0.25      0.5    Ni
Ni        0.75     0.75      0.0    Ni
C      0.75037  0.49032  0.66729     C
C      0.75037  0.50972  0.16729     C
C      0.75108  0.24772  0.34521     C
C      0.75108  0.75232  0.84521     C
O      0.75737  0.27081  0.17147     O
O      0.75737  0.72921  0.67147     O
C      0.76888   0.1272  0.86181     C
C      0.76888   0.8732  0.36181     C
C      0.76917  0.37202  0.38911     C
C      0.76917  0.62802  0.88911     C
C      0.76987  0.12232  0.37609     C
C      0.76987  0.87772  0.87609     C
O      0.77147  0.37481  0.44657     O
O      0.77147  0.62521  0.94657     O
O      0.77487  0.36211  0.96548     O
O      0.77487  0.63791  0.46548     O
O      0.78117  0.46871  0.36587     O
O      0.78117  0.53131  0.86587     O
C      0.78528  0.23922  0.72681     C
C      0.78528  0.76082  0.22681     C
C      0.78778  0.47802  0.73881     C
C      0.78778  0.52202  0.23881     C
O      0.78965  0.08531  0.49147     O
O      0.78965  0.91471  0.99147     O
H       0.7961   0.1548   0.7467     H
H       0.7961   0.8452   0.2467     H
H       0.8013    0.446   0.2666     H
H       0.8013    0.554   0.7666     H
C      0.80518  0.35212  0.76921     C
C      0.80518  0.64792  0.26921     C
Ni     0.80767  0.34702  0.90474    Ni
Ni     0.80767  0.65302  0.40474    Ni
H       0.8081    0.496   0.5852     H
H       0.8081    0.504   0.0852     H
C      0.80958  0.11292  0.45521     C
C      0.80958  0.88712  0.95521     C
O      0.81287  0.14051  0.91868     O
O      0.81287  0.85951  0.41868     O
N      0.81997  0.30322  0.59328     N
N      0.81997  0.69682  0.09328     N
C      0.83168   0.4302  0.61421     C
C      0.83168   0.5702  0.11421     C
N      0.84107  0.34032  0.84368     N
N      0.84107  0.65972  0.34368     N
H       0.8464   0.1204   0.6229     H
H       0.8464   0.8796   0.1229     H
C      0.85399   0.2092  0.63631     C
C      0.85399   0.7912  0.13631     C
O      0.85597  0.13202  0.47859     O
O      0.85597  0.86802  0.97859     O
H       0.8583   0.2626   0.8525     H
H       0.8583   0.7374   0.3525     H
H       0.8647   0.4065   0.8581     H
H       0.8647   0.5935   0.3581     H
H       0.8705   0.4113   0.4898     H
H       0.8705   0.5887   0.9898     H
C      0.87669   0.4702  0.67621     C
C      0.87669   0.5302  0.17621     C
N      0.87867  0.39402  0.99459     N
N      0.87867  0.60602  0.49459     N
H       0.8832   0.4406   0.1882     H
H       0.8832   0.5594   0.6882     H
C      0.89289   0.4802  0.51741     C
C      0.89289   0.5202  0.01741     C
C      0.89931   0.2402  0.69941     C
C      0.89931   0.7602  0.19941     C
H       0.9018   0.2085   0.0209     H
H       0.9018   0.7915   0.5209     H
C      0.91111   0.2962  0.03551     C
C      0.91111   0.7042  0.53551     C
C      0.91199   0.3722  0.72051     C
C      0.91199   0.6282  0.22051     C
H       0.9216   0.1715   0.7279     H
H       0.9216   0.8285   0.2279     H
C      0.93831   0.4483  0.57951     C
C      0.93831   0.5523  0.07951     C
H       0.9465   0.3589   0.5931     H
H       0.9465   0.6411   0.0931     H
C      0.95781   0.3213  0.09861     C
C      0.95781   0.6793  0.59861     C
H       0.9585   0.4062   0.2844     H
H       0.9585   0.5938   0.7844     H
C      0.96049   0.4023  0.78731     C
C      0.96049   0.5983  0.28731     C
C      0.97229   0.4513  0.12191     C
C      0.97229   0.5493  0.62191     C
C      0.97841   0.4793  0.31141     C
C      0.97841   0.5213  0.81141     C
H       0.9795   0.2505   0.1252     H
H       0.9795   0.7495   0.6252     H
H       0.9802   0.3296    0.815     H
H       0.9802   0.6704    0.315     H
