data_I
_chemical_name_common  '/home/zhangsd/repos/MofS-CGCNN/CGCNN_MT/data/WS24v2_external_test/clean_cifs/val_15'
_cell_length_a  8.05427
_cell_length_b 25.59330
_cell_length_c  9.62147
_cell_angle_alpha 90.00000
_cell_angle_beta  113.79500
_cell_angle_gamma 90.00000
_space_group_name_H-M_alt      'P 1'


loop_
_space_group_symop_operation_xyz
  'x, y, z' 

loop_
_atom_site_label
_atom_site_fract_x
_atom_site_fract_y
_atom_site_fract_z
_atom_site_type_symbol
C      0.01055  0.17422  0.55484     C
C      0.01055  0.32578  0.55484     C
H      0.01713  0.21526  0.24692     H
H      0.01713  0.28474  0.24692     H
N      0.01914    0.121  0.49794     N
N      0.01914    0.379  0.49794     N
P      0.02223  0.67504  0.26879     P
P      0.02223  0.82496  0.26879     P
H      0.02257  0.60941  0.82313     H
H      0.02257  0.89059  0.82313     H
H      0.02364   0.5148  0.34162     H
H      0.02364   0.9852  0.34162     H
Cu     0.02822     0.75  0.14404    Cu
C      0.02945  0.55243  0.29094     C
C      0.02945  0.94757  0.29094     C
H      0.05093  0.54628  0.18739     H
H      0.05093  0.95372  0.18739     H
C      0.09947     0.25  0.25747     C
H      0.10208  0.69497  0.53146     H
H      0.10208  0.80503  0.53146     H
H      0.13688  0.63377  0.01106     H
H      0.13688  0.86623  0.01106     H
H      0.13708  0.19428  0.57383     H
H      0.13708  0.30572  0.57383     H
H      0.13771  0.11797  0.93921     H
H      0.13771  0.38203  0.93921     H
H      0.14622  0.55605  0.58787     H
H      0.14622  0.94395  0.58787     H
N      0.14744  0.07872  0.75034     N
N      0.14744  0.42128  0.75034     N
C      0.15055  0.59287  0.53274     C
C      0.15055  0.90713  0.53274     C
C      0.15295  0.12805  0.83504     C
C      0.15295  0.37195  0.83504     C
C      0.15325  0.62177  0.90874     C
C      0.15325  0.87823  0.90874     C
C      0.16935  0.09093  0.60804     C
C      0.16935  0.40907  0.60804     C
P      0.17722     0.25  0.10075     P
H      0.18048  0.05427  0.55497     H
H      0.18048  0.44573  0.55497     H
N      0.18404  0.58137  0.39774     N
N      0.18404  0.91863  0.39774     N
H      0.20446  0.65449  0.86523     H
H      0.20446  0.84551  0.86523     H
C      0.21505  0.62994  0.32994     C
C      0.21505  0.87006  0.32994     C
H      0.22034  0.03592  0.31392     H
H      0.22034  0.46408  0.31392     H
O      0.22604  0.53491  0.87634     O
O      0.22604  0.96509  0.87634     O
H      0.24277  0.61981  0.23142     H
H      0.24277  0.88019  0.23142     H
N      0.25097     0.25  0.41035     N
H      0.26244  0.61656  0.60908     H
H      0.26244  0.88344  0.60908     H
H      0.27162  0.15915  0.16192     H
H      0.27162  0.34085  0.16192     H
H      0.27618  0.16952  0.40523     H
H      0.27618  0.33048  0.40523     H
H      0.28444  0.14644  0.86309     H
H      0.28444  0.35356  0.86309     H
C      0.28485  0.57727  0.94544     C
C      0.28485  0.92273  0.94544     C
H      0.29368  0.11338  0.63703     H
H      0.29368  0.38662  0.63703     H
O      0.29687     0.75  0.96035     O
O      0.29697     0.75  0.19145     O
O      0.32294  0.04663  0.08344     O
O      0.32294  0.45337  0.08344     O
H      0.32714     0.75  0.51992     H
H      0.33246   0.6497  0.41378     H
H      0.33246   0.8503  0.41378     H
C      0.34565  0.19572  0.17534     C
C      0.34565  0.30428  0.17534     C
H      0.35497     0.75  0.71291     H
C      0.36115  0.04626  0.34074     C
C      0.36115  0.45374  0.34074     C
C      0.36405  0.20371  0.43114     C
C      0.36405  0.29629  0.43114     C
Cu     0.37263  0.02878  0.90402    Cu
Cu     0.37263  0.47122  0.90402    Cu
H      0.37534     0.25  0.91555     H
C      0.37649     0.75  0.10357     C
H      0.37715  0.08848  0.35306     H
H      0.37715  0.41152  0.35306     H
H      0.37956  0.21526  0.75694     H
H      0.37956  0.28474  0.75694     H
C      0.41245  0.02824  0.21464     C
C      0.41245  0.47176  0.21464     C
C      0.42587     0.75  0.63757     C
H      0.42722   0.1943  0.10859     H
H      0.42722   0.3057  0.10859     H
C      0.42749     0.25  0.82728     C
O      0.44374  0.58439  0.04264     O
O      0.44374  0.91561  0.04264     O
H      0.44864  0.02743  0.44647     H
H      0.44864  0.47257  0.44647     H
O      0.45574  0.00296  0.75074     O
O      0.45574  0.49704  0.75074     O
H      0.45972  0.20233  0.54958     H
H      0.45972  0.29767  0.54958     H
N      0.46814   0.2016  0.33614     N
N      0.46814   0.2984  0.33614     N
N      0.53194   0.7016  0.66394     N
N      0.53194   0.7984  0.66394     N
H      0.54028  0.70233  0.45042     H
H      0.54028  0.79767  0.45042     H
O      0.54434  0.50296  0.24934     O
O      0.54434  0.99704  0.24934     O
H      0.55136  0.52743  0.55353     H
H      0.55136  0.97257  0.55353     H
O      0.55634  0.08439  0.95744     O
O      0.55634  0.41563  0.95744     O
C      0.57269     0.75  0.17288     C
H      0.57278   0.6943  0.89141     H
H      0.57278   0.8057  0.89141     H
C      0.57427     0.25  0.36257     C
C      0.58765  0.52824  0.78544     C
C      0.58765  0.97176  0.78544     C
H      0.62044  0.71526  0.24306     H
H      0.62044  0.78474  0.24306     H
H      0.62285  0.58848  0.64694     H
H      0.62285  0.91152  0.64694     H
C      0.62369     0.25  0.89657     C
H      0.62466     0.75  0.08445     H
Cu     0.62739  0.52878    0.096    Cu
Cu     0.62739  0.97122    0.096    Cu
C      0.63605  0.70371  0.56894     C
C      0.63605  0.79629  0.56894     C
C      0.63895  0.54626  0.65934     C
C      0.63895  0.95374  0.65934     C
H      0.64503     0.25  0.28709     H
C      0.65445  0.69572  0.82474     C
C      0.65445  0.80428  0.82474     C
H      0.66754   0.1497  0.58622     H
H      0.66754   0.3503  0.58622     H
H      0.67286     0.25  0.48008     H
O      0.67714  0.54663  0.91664     O
O      0.67714  0.95337  0.91664     O
O      0.70317     0.25  0.80865     O
O      0.70327     0.25  0.03975     O
H      0.70632  0.61338  0.36297     H
H      0.70632  0.88662  0.36297     H
C      0.71525  0.07727  0.05464     C
C      0.71525  0.42273  0.05464     C
H      0.71556  0.64644  0.13691     H
H      0.71556  0.85356  0.13691     H
H      0.72382  0.66952  0.59477     H
H      0.72382  0.83048  0.59477     H
H      0.72838  0.65915  0.83808     H
H      0.72838  0.84085  0.83808     H
H      0.73756  0.11656  0.39092     H
H      0.73756  0.38344  0.39092     H
N      0.74917     0.75  0.58975     N
H      0.75723  0.11981  0.76858     H
H      0.75723  0.38019  0.76858     H
O      0.77404  0.03491  0.12374     O
O      0.77404  0.46509  0.12374     O
H      0.77966  0.53592  0.68608     H
H      0.77966  0.96408  0.68608     H
C      0.78505  0.12994  0.67014     C
C      0.78505  0.37006  0.67014     C
H      0.79554  0.15449  0.13477     H
H      0.79554  0.34551  0.13477     H
N      0.81604  0.08137  0.60234     N
N      0.81604  0.41863  0.60234     N
H      0.81952  0.55427  0.44503     H
H      0.81952  0.94573  0.44503     H
P      0.82282     0.75  0.89925     P
C      0.83075  0.59093  0.39204     C
C      0.83075  0.90907  0.39204     C
C      0.84685  0.12177  0.09134     C
C      0.84685  0.37823  0.09134     C
C      0.84715  0.62805  0.16504     C
C      0.84715  0.87195  0.16504     C
C      0.84955  0.09287  0.46734     C
C      0.84955  0.40713  0.46734     C
N      0.85264  0.57872  0.24974     N
N      0.85264  0.92128  0.24974     N
H      0.85378  0.05605  0.41213     H
H      0.85378  0.44395  0.41213     H
H      0.86229  0.61797  0.06079     H
H      0.86229  0.88203  0.06079     H
H      0.86292  0.69428  0.42617     H
H      0.86292  0.80572  0.42617     H
H      0.86312  0.13377  0.98894     H
H      0.86312  0.36623  0.98894     H
H      0.89792  0.19497  0.46854     H
H      0.89792  0.30503  0.46854     H
C      0.90067     0.75  0.74267     C
H      0.94907  0.04628  0.81261     H
H      0.94907  0.45372  0.81261     H
C      0.97065  0.05243  0.70914     C
C      0.97065  0.44757  0.70914     C
Cu      0.9718     0.25  0.85598    Cu
H      0.97636   0.0148  0.65838     H
H      0.97636   0.4852  0.65838     H
H      0.97743  0.10941  0.17687     H
H      0.97743  0.39059  0.17687     H
P      0.97777  0.17504  0.73121     P
P      0.97777  0.32496  0.73121     P
N      0.98094    0.621  0.50214     N
N      0.98094    0.879  0.50214     N
H      0.98287  0.71526  0.75308     H
H      0.98287  0.78474  0.75308     H
C      0.98955  0.67422  0.44524     C
C      0.98955  0.82578  0.44524     C
