data_I
_chemical_name_common  '/home/zhangsd/repos/MofS-CGCNN/CGCNN_MT/data/WS24v2_external_test/clean_cifs/val_10'
_cell_length_a  7.85567
_cell_length_b 10.76470
_cell_length_c 22.54120
_cell_angle_alpha 90.00000
_cell_angle_beta  97.52490
_cell_angle_gamma 90.00000
_space_group_name_H-M_alt      'P 1'


loop_
_space_group_symop_operation_xyz
  'x, y, z' 

loop_
_atom_site_label
_atom_site_fract_x
_atom_site_fract_y
_atom_site_fract_z
_atom_site_type_symbol
Cu     0.01703  0.36292  0.98548    Cu
H      0.01868   0.1857  0.73768     H
H      0.06166  0.14098  0.64163     H
C      0.06635  0.39424  0.58159     C
C      0.06885  0.61384  0.59193     C
C      0.07445  0.11254  0.72978     C
H      0.09465  0.02712  0.91567     H
O      0.09764  0.07144  0.83105     O
C      0.09975  0.08564  0.67219     C
C      0.10315  0.38134   0.4292     C
O      0.10434  0.16512  0.42855     O
O      0.10504  0.81658  0.44919     O
H       0.1056   0.4734   0.0692     H
C      0.10755  0.60334  0.43963     C
H      0.11876  0.91259  0.87473     H
H      0.12372   0.3185  0.58499     H
O      0.12374  0.49132  0.04259     O
O      0.12524  0.00572  0.55304     O
H      0.12773  0.68708  0.60247     H
Cu     0.12971  0.99398  0.45346    Cu
C      0.13015  0.03264  0.77648     C
O      0.14784  0.22022  0.02071     O
O      0.14894  0.76252  0.04307     O
C      0.15295  0.99814  0.88289     C
C      0.15595  0.50224  0.59782     C
O      0.15904  0.38282  0.91001     O
C      0.18155  0.97674  0.65891     C
H      0.19006  0.98781  0.04072     H
C      0.19345  0.49064  0.44513     C
C      0.19395  0.26064  0.43915     C
C      0.19795  0.72234  0.45748     C
C      0.20905  0.92184  0.76342     C
H      0.21058  0.32306  0.80294     H
C      0.21885  0.95114   0.5967     C
C      0.23465  0.89654  0.70523     C
H      0.24416  0.86525  0.79374     H
H      0.25584  0.36526  0.70626     H
C      0.26545  0.39654  0.79477     C
C      0.28125  0.45114   0.9033     C
H      0.28942  0.82306  0.69706     H
C      0.29105  0.42184  0.73658     C
C      0.30215  0.22234  0.04252     C
C      0.30615  0.76064  0.06085     C
C      0.30665  0.99064  0.05487     C
H      0.30994  0.48781  0.45928     H
C      0.31855  0.47674  0.84109     C
O      0.34104  0.88282  0.58999     O
C      0.34415  0.00224  0.90218     C
C      0.34715  0.49814  0.61711     C
O      0.35114  0.26252  0.45693     O
O      0.35224  0.72018  0.47929     O
C      0.36995  0.53264  0.72352     C
Cu     0.37031  0.49398  0.04654    Cu
H      0.37227  0.18708  0.89753     H
O      0.37484  0.50572  0.94696     O
H      0.37628   0.8185  0.91501     H
O      0.37634  0.99128  0.45741     O
H      0.38124  0.41259  0.62527     H
C      0.39255  0.10334  0.06037     C
O      0.39504  0.31662  0.05081     O
H       0.3956   0.9726   0.4312     H
O      0.39574  0.66512  0.07145     O
C      0.39695  0.88134   0.0708     C
C      0.40035  0.58564  0.82781     C
O      0.40244  0.57144  0.66895     O
H      0.40535  0.52712  0.58433     H
C      0.42565  0.61254  0.77022     C
C      0.43125  0.11384  0.90807     C
C      0.43375  0.89424  0.91841     C
H      0.43834  0.64098  0.85837     H
H      0.48132   0.6857  0.76232     H
Cu     0.48297  0.86292  0.51452    Cu
Cu     0.51701  0.13708  0.48548    Cu
H      0.51868   0.3143  0.23768     H
H      0.56166  0.35902  0.14164     H
C      0.56635  0.10584  0.08159     C
C      0.56885  0.88624  0.09193     C
C      0.57445  0.38754  0.22978     C
H      0.59465  0.47288  0.41567     H
O      0.59764  0.42864  0.33105     O
C      0.59975  0.41444  0.17219     C
C      0.60315  0.11874   0.9292     C
O      0.60434  0.33492  0.92855     O
O      0.60504  0.68342  0.94919     O
H       0.6056   0.0274   0.5692     H
C      0.60755  0.89674  0.93963     C
H      0.61876  0.58741  0.37473     H
H      0.62372   0.1815  0.08499     H
O      0.62374  0.00872  0.54259     O
O      0.62524  0.49432  0.05304     O
H      0.62773  0.81292  0.10247     H
Cu     0.62971  0.50602  0.95346    Cu
C      0.63015  0.46744  0.27648     C
O      0.64776  0.27982  0.52071     O
O      0.64886  0.73752  0.54307     O
C      0.65295  0.50194  0.38289     C
C      0.65595  0.99784  0.09782     C
O      0.65904  0.11722  0.41001     O
C      0.68155  0.52334  0.15891     C
H      0.69006  0.51219  0.54072     H
C      0.69345  0.00944  0.94513     C
C      0.69395  0.23944  0.93915     C
C      0.69795  0.77774  0.95748     C
C      0.70905  0.57824  0.26342     C
H      0.71058  0.17694  0.30294     H
C      0.71885  0.54894   0.0967     C
C      0.73465  0.60354  0.20523     C
H      0.74416  0.63475  0.29374     H
H      0.75584  0.13474  0.20626     H
C      0.76545  0.10354  0.29477     C
C      0.78125  0.04894   0.4033     C
H      0.78942  0.67694  0.19706     H
C      0.79105  0.07824  0.23658     C
C      0.80205  0.27774  0.54252     C
C      0.80605  0.73944  0.56085     C
C      0.80655  0.50944  0.55487     C
H      0.80994  0.01219  0.95928     H
C      0.81855  0.02334  0.34109     C
O      0.84104  0.61722  0.08999     O
C      0.84415  0.49784  0.40218     C
C      0.84715  0.00194  0.11711     C
O      0.85106  0.23752  0.95693     O
O      0.85224  0.77982  0.97929     O
C      0.86995  0.96744  0.22352     C
Cu     0.87029  0.00602  0.54654    Cu
H      0.87227  0.31292  0.39753     H
O      0.87484  0.99428  0.44696     O
O      0.87626  0.50872  0.95741     O
H      0.87628   0.6815  0.41501     H
H      0.88124  0.08741  0.12527     H
C      0.89245  0.39674  0.56037     C
O      0.89496  0.18342  0.55081     O
H       0.8956   0.5274   0.9308     H
O      0.89566  0.83492  0.57145     O
C      0.89685  0.61874   0.5708     C
C      0.90035  0.91444  0.32781     C
O      0.90244  0.92864  0.16895     O
H      0.90535  0.97288  0.08433     H
C      0.92565  0.88754  0.27022     C
C      0.93125  0.38624  0.40807     C
C      0.93375  0.60584  0.41841     C
H      0.93834  0.85902  0.35836     H
H      0.98132   0.8143  0.26232     H
Cu     0.98297  0.63708  0.01452    Cu
