data_I
_chemical_name_common  '/home/zhangsd/repos/MofS-CGCNN/CGCNN_MT/data/WS24v2_external_test/clean_cifs/val_32'
_cell_length_a 17.79160
_cell_length_b 22.19590
_cell_length_c 12.52100
_cell_angle_alpha 90.00000
_cell_angle_beta  108.91700
_cell_angle_gamma 90.00000
_space_group_name_H-M_alt      'P 1'


loop_
_space_group_symop_operation_xyz
  'x, y, z' 

loop_
_atom_site_label
_atom_site_fract_x
_atom_site_fract_y
_atom_site_fract_z
_atom_site_type_symbol
O       0.0142  0.25211   0.6573     O
O       0.0142  0.74791   0.1573     O
H       0.0201   0.4445   0.4116     H
H       0.0201   0.5555   0.9116     H
C       0.0283   0.2572   0.7684     C
C       0.0283   0.7432   0.2684     C
H       0.0294    0.273   0.9755     H
H       0.0294    0.727   0.4755     H
O      0.02942  0.15241   0.5132     O
O      0.02942  0.84761   0.0132     O
O      0.03132  0.34791   0.5132     O
O      0.03132  0.65211   0.0132     O
C      0.04411  0.06648   0.6292     C
C      0.04411  0.93368   0.1292     C
O      0.05451  0.24378   0.3572     O
O      0.05451  0.75638   0.8572     O
C      0.05471  0.01009  0.27022     C
C      0.05471  0.99009  0.77022     C
C       0.0662  0.13111   0.5963     C
C       0.0662  0.86891   0.0963     C
C      0.06731  0.46179   0.4572     C
C      0.06731  0.53839   0.9572     C
H       0.0676   0.4681   0.8542     H
H       0.0676   0.5319   0.3542     H
H       0.0811   0.0263   0.3408     H
H       0.0811   0.9737   0.8408     H
C      0.08361  0.04209   0.7352     C
C      0.08361  0.95809   0.2352     C
C       0.0872  0.37501   0.5773     C
C       0.0872  0.62501   0.0773     C
O      0.09372  0.26071   0.8392     O
O      0.09372  0.73931   0.3392     O
C      0.09581  0.48609  0.92262     C
C      0.09581  0.51409  0.42262     C
C      0.10951  0.43508   0.5592     C
C      0.10951  0.56508   0.0592     C
C       0.1282  0.24271   0.4224     C
C       0.1282  0.75731   0.9224     C
O      0.12892  0.15501   0.6762     O
O      0.12892  0.84501   0.1762     O
H       0.1291   0.2493   0.2094     H
H       0.1291   0.7507   0.7094     H
H       0.1293   0.0604   0.7821     H
H       0.1293   0.9396   0.2821     H
O      0.13201  0.34611   0.6762     O
O      0.13201  0.65391   0.1762     O
O      0.14122  0.24889   0.5252     O
O      0.14122  0.75129   0.0252     O
C      0.16641  0.46037  0.99061     C
C      0.16641  0.53977  0.49062     C
H       0.1666   0.3902   0.8877     H
H       0.1666   0.6098   0.3877     H
H       0.1773   0.0066   0.0683     H
H       0.1773   0.9934   0.5683     H
H       0.1786   0.1023   0.9944     H
H       0.1786   0.8977   0.4944     H
C      0.18011  0.46068   0.6272     C
C      0.18011  0.53948   0.1272     C
C      0.18131  0.24599  0.25732     C
C      0.18131  0.75419  0.75732     C
Th     0.19354  0.25034  0.73023    Th
Th     0.19354  0.74967  0.23023    Th
C      0.19481  0.40808   0.9562     C
C      0.19481  0.59208   0.4562     C
C      0.19701  0.24119  0.37322     C
C      0.19701  0.75899  0.87322     C
H       0.2083   0.4428   0.6958     H
H       0.2083   0.5572   0.1958     H
C      0.20851  0.48707  0.09292     C
C      0.20851  0.51307  0.59291     C
C      0.22412  0.02209   0.0612     C
C      0.22412  0.97809   0.5612     C
C      0.22481  0.07949   0.0172     C
C      0.22481  0.92069   0.5172     C
H        0.233   0.2488   0.1354     H
H        0.233   0.7512   0.6354     H
O      0.23681  0.18531   0.8943     O
O      0.23681  0.81471   0.3943     O
C      0.24351  0.24569  0.21302     C
C      0.24351  0.75449  0.71302     C
H       0.2457    0.085   0.6464     H
H       0.2457    0.915   0.1464     H
O      0.25952  0.30821   0.8812     O
O      0.25952  0.69181   0.3812     O
C      0.26541  0.38248   0.0242     C
C      0.26541  0.61768   0.5242     C
C      0.27491  0.23619  0.44482     C
C      0.27491  0.76399  0.94482     C
C      0.27911  0.46149  0.16082     C
C      0.27911  0.53869  0.66082     C
O      0.28282  0.31531   0.6612     O
O      0.28282  0.68471   0.1612     O
H       0.2854   0.2329   0.5223     H
H       0.2854   0.7671   0.0223     H
C      0.29252  0.06959   0.6392     C
C      0.29252  0.93059   0.1392     C
C      0.29322  0.01229   0.5952     C
C      0.29322  0.98789   0.0952     C
C      0.29472  0.10259   0.0072     C
C      0.29472  0.89759   0.5072     C
O      0.29481  0.18901   0.7122     O
O      0.29481  0.81101   0.2122     O
C       0.2983   0.1622   0.9604     C
C       0.2983   0.8382   0.4604     C
H        0.304   0.3892    0.512     H
H        0.304   0.6108    0.012     H
C       0.3052  0.33272   0.9723     C
C       0.3052  0.66732   0.4723     C
H       0.3073   0.4793   0.2293     H
H       0.3073   0.5207   0.7293     H
C      0.30761  0.40919   0.1262     C
C      0.30761  0.59099   0.6262     C
C      0.32141  0.24065  0.28452     C
C      0.32141  0.75945  0.78452     C
C      0.33711  0.23585  0.40042     C
C      0.33711  0.76425  0.90042     C
C      0.34971  0.40761   0.5592     C
C      0.34971  0.59241   0.0592     C
H       0.3522   0.4758   0.4533     H
H       0.3522   0.5242   0.9533     H
H       0.3548   0.3919   0.1719     H
H       0.3548   0.6081   0.6719     H
C       0.3552  0.33452   0.7143     C
C       0.3552  0.66552   0.2143     C
C      0.36162  0.10379   0.6732     C
C      0.36162  0.89639   0.1732     C
O      0.36242  0.18861   0.9733     O
O      0.36242  0.81141   0.4733     O
C      0.36312  0.01109   0.0852     C
C      0.36312  0.98909   0.5852     C
C       0.3632  0.16292   0.7313     C
C       0.3632  0.83712   0.2313     C
C      0.36391  0.06839   0.0412     C
C      0.36391  0.93179   0.5412     C
H       0.3731   0.2435   0.1627     H
H       0.3731   0.7565   0.6627     H
O      0.37401  0.31891   0.0192     O
O      0.37401  0.68111   0.5192     O
C      0.37861  0.45959  0.52392     C
C      0.37861  0.54059  0.02392     C
C      0.38361  0.24031  0.24022     C
C      0.38361  0.75971  0.74022     C
C      0.38921  0.38319   0.6652     C
C      0.38921  0.61699   0.1652     C
O      0.39742  0.30951   0.8042     O
O      0.39742  0.69051   0.3042     O
H       0.4107   0.0838   0.0337     H
H       0.4107   0.9162   0.5337     H
C      0.41501  0.23079  0.47202     C
C      0.41501  0.76939  0.97202     C
H       0.4255   0.2275   0.5495     H
H       0.4255   0.7725   0.0495     H
O      0.42891  0.18309   0.7902     O
O      0.42891  0.81709   0.2902     O
C      0.43151  0.08069   0.6632     C
C      0.43151  0.91949   0.1632     C
C      0.43231  0.02339   0.6192     C
C      0.43232  0.97679   0.1192     C
C      0.44691  0.48707  0.59432     C
C      0.44691  0.51307  0.09431     C
H       0.4493   0.4448   0.9884     H
H       0.4493   0.5552   0.4884     H
C      0.45751  0.41068  0.73502     C
C      0.45751  0.58948  0.23502     C
C      0.46151  0.23521   0.3122     C
C      0.46151  0.76481   0.8122     C
Th     0.46587   0.2504  0.95927    Th
Th     0.46587   0.7496  0.45927    Th
C      0.47571  0.46118  0.05912     C
C      0.47571  0.53898  0.55912     C
C      0.47721  0.23049   0.4282     C
C      0.47721  0.76969   0.9282     C
H       0.4778   0.1035   0.6856     H
H       0.4778   0.8965   0.1856     H
H       0.4791   0.0078   0.6118     H
H       0.4791   0.9922   0.1118     H
H       0.4839   0.3943   0.8056     H
H       0.4839   0.6057   0.3056     H
C      0.48641  0.46257  0.69981     C
C      0.48641  0.53757  0.19981     C
O       0.5142  0.24791   0.1573     O
O       0.5142  0.75211   0.6573     O
H       0.5201   0.0555   0.9116     H
H       0.5201   0.9445   0.4116     H
C       0.5283   0.2432   0.2684     C
C       0.5283   0.7572   0.7684     C
H       0.5294    0.227   0.4755     H
H       0.5294    0.773   0.9755     H
O      0.52941  0.34761   0.0132     O
O      0.52941  0.65241   0.5132     O
O      0.53132  0.15211   0.0132     O
O      0.53132  0.84791   0.5132     O
C      0.54411  0.43368   0.1292     C
C      0.54411  0.56648   0.6292     C
O      0.55451  0.25638   0.8572     O
O      0.55451  0.74378   0.3572     O
C      0.55471  0.49009  0.77022     C
C      0.55471  0.51009  0.27022     C
C       0.5662  0.36891   0.0963     C
C       0.5662  0.63111   0.5963     C
C      0.56731  0.03839   0.9572     C
C      0.56731  0.96179   0.4572     C
H       0.5676   0.0319   0.3542     H
H       0.5676   0.9681   0.8542     H
H       0.5811   0.4737   0.8408     H
H       0.5811   0.5263   0.3408     H
C      0.58361  0.45809   0.2352     C
C      0.58361  0.54209   0.7352     C
C       0.5872  0.12501   0.0773     C
C       0.5872  0.87501   0.5773     C
O      0.59372  0.23931   0.3392     O
O      0.59372  0.76071   0.8392     O
C      0.59581  0.01409  0.42262     C
C      0.59581  0.98609  0.92262     C
C      0.60951  0.06508   0.0592     C
C      0.60951  0.93508   0.5592     C
C       0.6282  0.25731   0.9224     C
C       0.6282  0.74271   0.4224     C
O      0.62892  0.34501   0.1762     O
O      0.62892  0.65501   0.6762     O
H       0.6291   0.2507   0.7094     H
H       0.6291   0.7493   0.2094     H
H       0.6293   0.4396   0.2821     H
H       0.6293   0.5604   0.7821     H
O      0.63201  0.15391   0.1762     O
O      0.63201  0.84611   0.6762     O
O      0.64122  0.25129   0.0252     O
O      0.64122  0.74889   0.5252     O
C      0.66641  0.03977  0.49062     C
C      0.66641  0.96037  0.99061     C
H     0.66666667   0.1098   0.3877     H
H     0.66666667   0.8902   0.8877     H
H       0.6773   0.4934   0.5683     H
H       0.6773   0.5066   0.0683     H
H       0.6786   0.3977   0.4944     H
H       0.6786   0.6023   0.9944     H
C      0.68011  0.03948   0.1272     C
C      0.68011  0.96068   0.6272     C
C      0.68131  0.25419  0.75732     C
C      0.68131  0.74599  0.25732     C
Th     0.69354  0.24966  0.23023    Th
Th     0.69354  0.75035  0.73023    Th
C      0.69481  0.09208   0.4562     C
C      0.69481  0.90808   0.9562     C
C      0.69701  0.25899  0.87322     C
C      0.69701  0.74119  0.37322     C
H       0.7083   0.0572   0.1958     H
H       0.7083   0.9428   0.6958     H
C      0.70851  0.01307  0.59291     C
C      0.70851  0.98707  0.09292     C
C      0.72411  0.47809   0.5612     C
C      0.72411  0.52209   0.0612     C
C      0.72481  0.57949   0.0172     C
C      0.72482  0.42069   0.5172     C
H        0.733   0.2512   0.6354     H
H        0.733   0.7488   0.1354     H
O      0.73681  0.31471   0.3943     O
O      0.73681  0.68531   0.8943     O
C      0.74351  0.25449  0.71302     C
C      0.74351  0.74569  0.21302     C
H       0.7457    0.415   0.1464     H
H       0.7457    0.585   0.6464     H
O      0.75952  0.19181   0.3812     O
O      0.75952  0.80821   0.8812     O
C      0.76541  0.11768   0.5242     C
C      0.76541  0.88248   0.0242     C
C      0.77491  0.26399  0.94482     C
C      0.77491  0.73619  0.44482     C
C      0.77911  0.03869  0.66082     C
C      0.77911  0.96149  0.16082     C
O      0.78282  0.18471   0.1612     O
O      0.78282  0.81531   0.6612     O
H       0.7854   0.2671   0.0223     H
H       0.7854   0.7329   0.5223     H
C      0.79251  0.43059   0.1392     C
C      0.79251  0.56959   0.6392     C
C      0.79322  0.48789   0.0952     C
C      0.79322  0.51229   0.5952     C
C      0.79471  0.39759   0.5072     C
C      0.79471  0.60259   0.0072     C
O      0.79482  0.31101   0.2122     O
O      0.79482  0.68901   0.7122     O
C       0.7983   0.3382   0.4604     C
C       0.7983   0.6622   0.9604     C
H        0.804   0.1108    0.012     H
H        0.804   0.8892    0.512     H
C       0.8052  0.16732   0.4723     C
C       0.8052  0.83272   0.9723     C
H       0.8073   0.0207   0.7293     H
H       0.8073   0.9793   0.2293     H
C      0.80761  0.09099   0.6262     C
C      0.80761  0.90919   0.1262     C
C      0.82141  0.25945  0.78452     C
C      0.82141  0.74065  0.28452     C
C      0.83711  0.26425  0.90042     C
C      0.83711  0.73585  0.40042     C
C      0.84971  0.09241   0.0592     C
C      0.84971  0.90761   0.5592     C
H       0.8522   0.0242   0.9533     H
H       0.8522   0.9758   0.4533     H
H       0.8548   0.1081   0.6719     H
H       0.8548   0.8919   0.1719     H
C       0.8552  0.16552   0.2143     C
C       0.8552  0.83452   0.7143     C
C      0.86162  0.39639   0.1732     C
C      0.86162  0.60379   0.6732     C
O      0.86242  0.31141   0.4733     O
O      0.86242  0.68861   0.9733     O
C      0.86311  0.48909   0.5852     C
C      0.86311  0.51109   0.0852     C
C       0.8632  0.33711   0.2313     C
C       0.8632  0.66292   0.7313     C
C      0.86391  0.43179   0.5412     C
C      0.86391  0.56839   0.0412     C
H       0.8731   0.2565   0.6627     H
H       0.8731   0.7435   0.1627     H
O      0.87401  0.18111   0.5192     O
O      0.87401  0.81891   0.0192     O
C      0.87861  0.04059  0.02392     C
C      0.87861  0.95959  0.52392     C
C      0.88361  0.25971  0.74022     C
C      0.88361  0.74031  0.24022     C
C      0.88921  0.11699   0.1652     C
C      0.88921  0.88319   0.6652     C
O      0.89742  0.19051   0.3042     O
O      0.89742  0.80951   0.8042     O
H       0.9107   0.4162   0.5337     H
H       0.9107   0.5838   0.0337     H
C      0.91501  0.26939  0.97202     C
C      0.91501  0.73079  0.47202     C
H       0.9255   0.2725   0.0495     H
H       0.9255   0.7275   0.5495     H
O      0.92891  0.31709   0.2902     O
O      0.92891  0.68309   0.7902     O
C      0.93151  0.41949   0.1632     C
C      0.93151  0.58069   0.6632     C
C      0.93231  0.47679   0.1192     C
C      0.93231  0.52339   0.6192     C
C      0.94691  0.01307  0.09431     C
C      0.94691  0.98707  0.59432     C
H       0.9493   0.0552   0.4884     H
H       0.9493   0.9448   0.9884     H
C      0.95751  0.08948  0.23502     C
C      0.95751  0.91068  0.73502     C
C      0.96151  0.26481   0.8122     C
C      0.96151  0.73521   0.3122     C
Th     0.96587   0.2496  0.45927    Th
Th     0.96587  0.75041  0.95927    Th
C      0.97571  0.03898  0.55912     C
C      0.97571  0.96118  0.05912     C
C      0.97721  0.26969   0.9282     C
C      0.97721  0.73049   0.4282     C
H       0.9778   0.3965   0.1856     H
H       0.9778   0.6035   0.6856     H
H       0.9791   0.4922   0.1118     H
H       0.9791   0.5078   0.6118     H
H       0.9839   0.1057   0.3056     H
H       0.9839   0.8943   0.8056     H
C      0.98641  0.03757  0.19981     C
C      0.98641  0.96257  0.69981     C
