data_I
_chemical_name_common  '/home/zhangsd/repos/MofS-CGCNN/CGCNN_MT/data/WS24v2_external_test/clean_cifs/val_2'
_cell_length_a 16.89130
_cell_length_b 16.89130
_cell_length_c  6.67020
_cell_angle_alpha 90.00000
_cell_angle_beta  90.00000
_cell_angle_gamma 120.00000
_space_group_name_H-M_alt      'P 1'


loop_
_space_group_symop_operation_xyz
  'x, y, z' 

loop_
_atom_site_label
_atom_site_fract_x
_atom_site_fract_y
_atom_site_fract_z
_atom_site_type_symbol
Al         0.0      0.5      0.0    Al
Al         0.0      0.5      0.5    Al
O      0.05169  0.53876  0.75133     O
O      0.06876  0.62424  0.09307     O
O      0.06957  0.62084  0.40678     O
O      0.09637  0.47597  0.06157     O
H      0.10146  0.80943  0.12251     H
O      0.10147  0.48666  0.41587     O
H      0.10674  0.31738  0.21341     H
C      0.10716  0.66018  0.25116     C
C      0.11869  0.47677  0.23895     C
H       0.1243  0.81957  0.38435     H
C      0.15341  0.82441  0.23612     C
C      0.17561  0.32906  0.23612     C
H      0.18048  0.30474  0.38432     H
C      0.18566  0.75808   0.2202     C
H      0.19059  0.29207  0.12245     H
H      0.21067  0.89324  0.21333     H
C      0.21401  0.48737   0.2333     C
C      0.24208  0.42775   0.2202     C
H      0.26934  0.55797  0.24117     H
C      0.27338  0.78601   0.2333     C
H      0.28863  0.73065  0.24115     H
H      0.29202  0.10146   0.8775     H
H      0.30472   0.1243  0.61565     H
H      0.31746  0.21068  0.78667     H
C      0.32906  0.15341  0.76392     C
C      0.33998  0.44696  0.25116     C
C      0.35816  0.88149  0.23895     C
O      0.37584  0.44455  0.09307     O
O      0.37924  0.44876  0.40678     O
O      0.37964  0.90363  0.06157     O
O      0.38524  0.89853  0.41587     O
C      0.42775  0.18566   0.7802     C
H      0.44201  0.71133  0.24117     H
O      0.44455  0.06876  0.90693     O
C      0.44696  0.10716  0.74896     C
O      0.44876  0.06957  0.59338     O
O      0.46136  0.51297  0.75133     O
O      0.47597  0.37964  0.93843     O
C      0.47677  0.35816  0.76115     C
O      0.48666  0.38524  0.58427     O
O      0.48717  0.94831  0.75133     O
C      0.48737  0.27338   0.7673     C
Al         0.5      0.0      0.0    Al
Al         0.5      0.0      0.5    Al
Al         0.5      0.5      0.0    Al
Al         0.5      0.5      0.5    Al
C      0.51277  0.72678   0.2333     C
O      0.51297  0.05169  0.24867     O
O      0.51346  0.61484  0.41587     O
C      0.52337  0.64196  0.23895     C
O      0.52417  0.62044  0.06157     O
O      0.53876  0.48717  0.24867     O
O      0.55136  0.93043  0.40678     O
C      0.55316  0.89296  0.25116     C
O      0.55555  0.93124  0.09307     O
H      0.55798  0.28867  0.75883     H
C      0.57235  0.81446   0.2202     C
O      0.61484  0.10147  0.58427     O
O      0.62044  0.09637  0.93843     O
O      0.62084  0.55136  0.59338     O
O      0.62424  0.55555  0.90693     O
C      0.64196  0.11869  0.76115     C
C      0.66018  0.55316  0.74896     C
C      0.67106  0.84661  0.23612     C
H      0.68254  0.78932  0.21333     H
H      0.69528   0.8757  0.38435     H
H      0.70798  0.89854   0.1225     H
H      0.71137  0.26935  0.75885     H
C      0.72678  0.21401   0.7673     C
H      0.73066  0.44203  0.75883     H
C      0.75808  0.57235   0.7802     C
C      0.78601  0.51277   0.7673     C
H      0.78933  0.10676  0.78667     H
H      0.80941  0.70793  0.87755     H
C      0.81446  0.24208   0.7802     C
H      0.81952  0.69526  0.61568     H
C      0.82441  0.67106  0.76392     C
C      0.84661  0.17561  0.76392     C
H       0.8757  0.18043  0.61565     H
C      0.88149  0.52337  0.76115     C
C      0.89296  0.33998  0.74896     C
H      0.89326  0.68262  0.78659     H
O      0.89853  0.51346  0.58427     O
H      0.89854  0.19057   0.8775     H
O      0.90363  0.52417  0.93843     O
O      0.93043  0.37924  0.59338     O
O      0.93124  0.37584  0.90693     O
O      0.94831  0.46136  0.24867     O
