data_I
_chemical_name_common  '/home/zhangsd/repos/MofS-CGCNN/CGCNN_MT/data/WS24v2_external_test/clean_cifs/val_23'
_cell_length_a  8.91824
_cell_length_b 13.66480
_cell_length_c 14.71070
_cell_angle_alpha 90.00000
_cell_angle_beta  90.00000
_cell_angle_gamma 90.00000
_space_group_name_H-M_alt      'P 1'


loop_
_space_group_symop_operation_xyz
  'x, y, z' 

loop_
_atom_site_label
_atom_site_fract_x
_atom_site_fract_y
_atom_site_fract_z
_atom_site_type_symbol
C      0.00298  0.61477  0.16785     C
C      0.00298  0.88537  0.33225     C
C      0.02738  0.70555  0.13065     C
C      0.02738  0.79455  0.36945     C
C      0.02747  0.16265  0.99014     C
C      0.02747  0.33745  0.50994     C
O      0.02977  0.50654  0.29354     O
O      0.02977  0.99354  0.20654     O
C      0.04827  0.23435  0.55015     C
C      0.04827  0.26575  0.94995     C
O      0.06367  0.60794  0.45274     O
O      0.06367  0.89214  0.04734     O
C      0.08429  0.57745  0.25075     C
C      0.08429  0.92265  0.24935     C
C      0.09359  0.05035  0.62395     C
C      0.09359  0.44975  0.87615     C
H      0.09524  0.74939  0.15901     H
H      0.09524  0.75061  0.34098     H
O      0.10587  0.14194  0.05784     O
O      0.10587  0.35814  0.44224     O
H      0.11198  0.51207  0.84981     H
H      0.11198  0.98793  0.65019     H
C      0.14157  0.16705  0.50655     C
C      0.14157  0.33305  0.99355     C
H      0.16014  0.03397  0.89048     H
H      0.16014  0.46603  0.60952     H
C      0.16378  0.07455  0.54255     C
C      0.16378  0.42555  0.95755     C
H       0.1659  0.53976  0.60952     H
H       0.1659  0.96024  0.89048     H
H       0.1903  0.18494  0.45159     H
H       0.1903  0.31506  0.04841     H
O      0.21007  0.61694  0.27264     O
O      0.21007  0.88314  0.22744     O
Eu        0.25      0.0  0.09583    Eu
O         0.25      0.0  0.40945     O
C         0.25      0.0  0.49197     C
O         0.25      0.0  0.92165     O
C         0.25      0.5  0.00817     C
O         0.25      0.5  0.09065     O
Eu        0.25      0.5  0.40417    Eu
O         0.25      0.5  0.57845     O
O      0.29007  0.11694  0.22744     O
O      0.29007  0.38314  0.27264     O
H       0.3097  0.68494  0.04841     H
H       0.3097  0.81506  0.45159     H
H       0.3341  0.03976  0.89048     H
H       0.3341  0.46024  0.60952     H
C      0.33638  0.57455  0.95755     C
C      0.33638  0.92555  0.54255     C
H      0.33986  0.53397  0.60952     H
H      0.33986  0.96603  0.89048     H
C      0.35857  0.66705  0.99355     C
C      0.35857  0.83305  0.50655     C
H      0.38802  0.01207  0.65019     H
H      0.38802  0.48793  0.84981     H
O      0.39427  0.64194  0.44224     O
O      0.39427  0.85814  0.05784     O
H      0.40476  0.24939  0.34098     H
H      0.40476  0.25061  0.15901     H
C      0.40659  0.55035  0.87615     C
C      0.40659  0.94975  0.62395     C
C      0.41589  0.07745  0.24935     C
C      0.41589  0.42265  0.25075     C
O      0.43647  0.10794  0.04734     O
O      0.43647  0.39214  0.45274     O
C      0.45187  0.73435  0.94995     C
C      0.45187  0.76575  0.55015     C
O      0.47037  0.00654  0.20654     O
O      0.47037  0.49354  0.29354     O
C      0.47267  0.66265  0.50994     C
C      0.47267  0.83745  0.99014     C
C      0.47278  0.20555  0.36945     C
C      0.47278  0.29455  0.13065     C
C      0.49718  0.11477  0.33225     C
C      0.49718  0.38537  0.16785     C
C      0.50298  0.61477  0.83225     C
C      0.50298  0.88537  0.66785     C
C      0.52738  0.70555  0.86945     C
C      0.52738  0.79455  0.63065     C
C      0.52747  0.16265  0.00994     C
C      0.52747  0.33745  0.49014     C
O      0.52977  0.50654  0.70654     O
O      0.52977  0.99354  0.79354     O
C      0.54827  0.23435  0.44995     C
C      0.54827  0.26575  0.05015     C
O      0.56367  0.60794  0.54734     O
O      0.56367  0.89214  0.95274     O
C      0.58429  0.57745  0.74935     C
C      0.58429  0.92265  0.75075     C
C      0.59359  0.05035  0.37615     C
C      0.59359  0.44975  0.12395     C
H      0.59524  0.74939  0.84098     H
H      0.59524  0.75061  0.65901     H
O      0.60587  0.14194  0.94224     O
O      0.60587  0.35814  0.55784     O
H      0.61198  0.51207  0.15019     H
H      0.61198  0.98793  0.34981     H
C      0.64157  0.16705  0.49355     C
C      0.64157  0.33305  0.00655     C
H      0.66014  0.03397  0.10952     H
H      0.66014  0.46603  0.39048     H
C      0.66378  0.07455  0.45755     C
C      0.66378  0.42555  0.04255     C
H       0.6659  0.53976  0.39048     H
H       0.6659  0.96024  0.10952     H
H       0.6903  0.18494  0.54841     H
H       0.6903  0.31506  0.95159     H
O      0.71007  0.61694  0.72744     O
O      0.71007  0.88314  0.77264     O
O         0.75      0.0  0.07845     O
C         0.75      0.0  0.50817     C
O         0.75      0.0  0.59065     O
Eu        0.75      0.0  0.90417    Eu
O         0.75      0.5  0.42165     O
Eu        0.75      0.5  0.59583    Eu
O         0.75      0.5  0.90945     O
C         0.75      0.5  0.99197     C
O      0.79007  0.11694  0.77264     O
O      0.79007  0.38314  0.72744     O
H       0.8097  0.68494  0.95159     H
H       0.8097  0.81506  0.54841     H
H       0.8341  0.03976  0.10952     H
H       0.8341  0.46024  0.39048     H
C      0.83638  0.57455  0.04255     C
C      0.83638  0.92555  0.45755     C
H      0.83986  0.53397  0.39048     H
H      0.83986  0.96603  0.10952     H
C      0.85857  0.66705  0.00655     C
C      0.85857  0.83305  0.49355     C
H      0.88802  0.01207  0.34981     H
H      0.88802  0.48793  0.15019     H
O      0.89427  0.64194  0.55784     O
O      0.89427  0.85814  0.94224     O
H      0.90476  0.24939  0.65901     H
H      0.90476  0.25061  0.84098     H
C      0.90659  0.55035  0.12395     C
C      0.90659  0.94975  0.37615     C
C      0.91589  0.07745  0.75075     C
C      0.91589  0.42265  0.74935     C
O      0.93647  0.10794  0.95274     O
O      0.93647  0.39214  0.54734     O
C      0.95187  0.73435  0.05015     C
C      0.95187  0.76575  0.44995     C
O      0.97037  0.00654  0.79354     O
O      0.97037  0.49354  0.70654     O
C      0.97267  0.66265  0.49014     C
C      0.97267  0.83745  0.00994     C
C      0.97278  0.20555  0.63065     C
C      0.97278  0.29455  0.86945     C
C      0.99718  0.11477  0.66785     C
C      0.99718  0.38537  0.83225     C
