data_I
_chemical_name_common  '/home/zhangsd/repos/MofS-CGCNN/CGCNN_MT/data/WS24v2_external_test/clean_cifs/val_41'
_cell_length_a 16.16200
_cell_length_b  8.61606
_cell_length_c 18.35910
_cell_angle_alpha 90.00000
_cell_angle_beta  109.33300
_cell_angle_gamma 90.00000
_space_group_name_H-M_alt      'P 1'


loop_
_space_group_symop_operation_xyz
  'x, y, z' 

loop_
_atom_site_label
_atom_site_fract_x
_atom_site_fract_y
_atom_site_fract_z
_atom_site_type_symbol
H       0.0057   0.4255   0.4927     H
C      0.00641   0.7362  0.37188     C
C      0.00741   0.7482  0.00479     C
C      0.01421   0.8872  0.40388     C
C      0.01611   0.3572  0.22098     C
C      0.01761   0.7542  0.87908     C
O      0.02489  0.75301  0.75137     O
H       0.0339    0.758   0.0578     H
C      0.03521   0.2092  0.47038     C
C      0.04301  0.34272  0.51329     C
N      0.04961   0.0952  0.71811     N
C       0.0542   0.3253  0.78962     C
O      0.05428  0.59931  0.60847     O
C      0.05731   0.7712  0.95781     C
C      0.06981   0.7732  0.82381     C
H       0.0733   0.5341   0.3816     H
C      0.07811   0.6352  0.40099     C
C       0.0822   0.3303  0.00331     C
C      0.08231   0.1352  0.09661     C
H       0.0826   0.3861   0.8324     H
N      0.08331  0.94292  0.18939     N
C      0.08811   0.9332  0.46458     C
C       0.0922   0.1663  0.78052     C
C      0.09431  0.08522  0.50539     C
H       0.0956    0.166   0.3408     H
H       0.0999   0.7868   0.2709     H
C      0.10381  0.35712  0.58518     C
C      0.10981   0.3402  0.26908     C
H        0.111   0.4005    0.982     H
C      0.11471   0.5002  0.63181     C
Pb     0.11593  0.83173  0.68298    Pb
H       0.1162   0.7976   0.9785     H
C      0.12992   0.2352  0.06341     C
C      0.13022   0.8503  0.24731     C
C      0.13031   0.0412  0.15631     C
C      0.13631   0.2322  0.33108     C
H       0.1412   0.1246   0.8173     H
O      0.14779   0.7972  0.84677     O
N      0.15221  0.09422  0.57457     N
C      0.15341   0.6782  0.45578     C
H       0.1567   0.5008   0.2157     H
C      0.15931   0.2252  0.61289     C
C      0.16151  0.82812  0.48748     C
C      0.17371   0.4302  0.25618     C
O      0.18069  0.51661  0.69027     O
H       0.1998   0.6082   0.4725     H
H       0.2028   0.2324   0.6608     H
C      0.22002   0.8443  0.27341     C
C      0.22142   0.0402  0.18581     C
C       0.2222   0.2433  0.09102     C
C      0.22261   0.2272  0.37588     C
H       0.2404   0.1606   0.4182     H
H       0.2477   0.7715   0.3114     H
C      0.24861   0.8672  0.54499     C
H       0.2517   0.3133   0.0698     H
H        0.258    0.946   0.9434     H
N      0.25989  0.42201  0.29857     N
C      0.26632   0.1493   0.1482     C
C      0.26922   0.9373  0.24641     C
O      0.27748  0.79091  0.60387     O
H       0.2835   0.6785   0.0089     H
C      0.28391   0.3182  0.35871     C
O      0.29289  0.97171  0.52617     O
C       0.3102   0.9793  0.98062     C
H       0.3178   0.1855   0.9336     H
C       0.3252   0.7294  0.04992     C
H       0.3273   0.1507   0.1652     H
H       0.3278   0.5743   0.1241     H
O      0.32839  0.45402  0.51477     O
H       0.3302   0.9351   0.2655     H
Pb      0.3408  0.50742  0.66008    Pb
C      0.34512   0.1214  0.97532     C
C       0.3522   0.8864  0.04152     C
C       0.3582   0.6604  0.11532     C
C      0.37571   0.3392  0.53268     C
C      0.38051  0.29902  0.39728     C
O      0.38211   0.2142  0.76388     O
H       0.3892   0.7719   0.4953     H
O      0.39018  0.26721  0.59597     O
H       0.4026   0.2817    0.297     H
Pb     0.40936  0.00177   0.6504    Pb
O      0.41191   0.4572  0.80169     O
C      0.41901   0.1683  0.03001     C
C      0.41941   0.2902  0.47588     C
C      0.42761   0.3163  0.80631     C
C      0.42981   0.2762  0.35029     C
C      0.43031   0.9463  0.09921     C
C       0.4362   0.6993  0.17502     C
H       0.4416   0.2649   0.0247     H
C      0.45012   0.7723  0.51211     C
N      0.46101   0.0832  0.09088     N
O      0.46268  0.74201  0.72887     O
H        0.463   0.5274   0.2451     H
H        0.463   0.6174   0.4326     H
H       0.4687   0.0424   0.8839     H
C      0.47242   0.8553  0.16481     C
C       0.4832   0.6253  0.23722     C
H       0.4938   0.7999   0.9213     H
C       0.4942   0.6763  0.47551     C
N      0.49461  0.86702  0.57188     N
O      0.49569  0.52732  0.67667     O
H       0.5057   0.5745   0.9927     H
C      0.50641   0.2642  0.87188     C
C      0.50741   0.2522  0.50479     C
C      0.51421   0.1132  0.90388     C
C      0.51611   0.6432  0.72098     C
C      0.51761   0.2462  0.37908     C
O      0.52489  0.24702  0.25137     O
H       0.5339    0.242   0.5578     H
C      0.53521   0.7912  0.97038     C
C      0.54301  0.65732  0.01329     C
N      0.54961   0.9052  0.21811     N
C       0.5542   0.6753  0.28962     C
O      0.55428  0.40071  0.10847     O
C      0.55731   0.2292  0.45781     C
C      0.56981   0.2272  0.32381     C
H       0.5733   0.4659   0.8816     H
C      0.57811   0.3652  0.90099     C
C       0.5822   0.6703  0.50331     C
C      0.58231   0.8652  0.59661     C
H       0.5826   0.6139   0.3324     H
N      0.58331  0.05712  0.68939     N
C      0.58811   0.0672  0.96458     C
C       0.5922   0.8343  0.28052     C
C      0.59431  0.91482  0.00539     C
H       0.5956    0.834   0.8408     H
H       0.5999   0.2132   0.7709     H
C      0.60381  0.64292  0.08518     C
C      0.60981   0.6602  0.76908     C
H        0.611   0.5995    0.482     H
C      0.61471   0.5002  0.13181     C
Pb     0.61593  0.16829  0.18299    Pb
H       0.6162   0.2024   0.4785     H
C      0.62992   0.7652  0.56341     C
C      0.63022   0.1503  0.74731     C
C      0.63031   0.9592  0.65631     C
C      0.63631   0.7682  0.83108     C
H       0.6412   0.8754   0.3173     H
O      0.64779   0.2032  0.34677     O
N      0.65221  0.90582  0.07457     N
C      0.65341   0.3222  0.95578     C
H       0.6567   0.4992   0.7157     H
C      0.65931   0.7752  0.11289     C
C      0.66151  0.17192  0.98748     C
C      0.67371   0.5702  0.75618     C
O      0.68069  0.48341  0.19027     O
H       0.6998   0.3918   0.9725     H
H       0.7028   0.7676   0.1608     H
C      0.72002   0.1563  0.77341     C
C      0.72142   0.9602  0.68581     C
C       0.7222   0.7573  0.59102     C
C      0.72261   0.7732  0.87588     C
H       0.7404   0.8394   0.9182     H
H       0.7477   0.2285   0.8114     H
C      0.74861   0.1332  0.04499     C
H       0.7517   0.6867   0.5698     H
H        0.758    0.054   0.4434     H
N      0.75989  0.57801  0.79857     N
C      0.76632   0.8513   0.6482     C
C      0.76922   0.0633  0.74641     C
O      0.77748  0.20911  0.10387     O
H       0.7835   0.3215   0.5089     H
C      0.78391   0.6822  0.85871     C
O      0.79289  0.02831  0.02617     O
C       0.8102   0.0213  0.48062     C
H       0.8178   0.8145   0.4336     H
C       0.8252   0.2714  0.54992     C
H       0.8273   0.8493   0.6652     H
H       0.8278   0.4257   0.6241     H
O      0.82839  0.54602  0.01477     O
H       0.8302   0.0649   0.7655     H
Pb      0.8408   0.4926  0.16008    Pb
C      0.84512   0.8794  0.47532     C
C       0.8522   0.1144  0.54152     C
C       0.8582   0.3404  0.61532     C
C      0.87571   0.6612  0.03268     C
C      0.88051  0.70102  0.89728     C
O      0.88211   0.7862  0.26388     O
H       0.8892   0.2281   0.9953     H
O      0.89018  0.73281  0.09597     O
H       0.9026   0.7183    0.797     H
Pb     0.90936  0.99825   0.1504    Pb
O      0.91191   0.5432  0.30169     O
C      0.91901   0.8323  0.53001     C
C      0.91941   0.7102  0.97588     C
C      0.92761   0.6843  0.30631     C
C      0.92981   0.7242  0.85029     C
C      0.93031   0.0543  0.59921     C
C       0.9362   0.3013  0.67502     C
H       0.9416   0.7351   0.5247     H
C      0.95012   0.2283  0.01211     C
N      0.96101   0.9172  0.59088     N
O      0.96268  0.25801  0.22887     O
H        0.963   0.3826   0.9326     H
H        0.963   0.4726   0.7451     H
H       0.9687   0.9576   0.3839     H
C      0.97242   0.1453  0.66481     C
C       0.9832   0.3753  0.73721     C
H       0.9938   0.2001   0.4213     H
C       0.9942   0.3243  0.97551     C
N      0.99461  0.13302  0.07188     N
O      0.99569  0.47272  0.17667     O
