data_I
_chemical_name_common  '/home/zhangsd/repos/MofS-CGCNN/CGCNN_MT/data/WS24v2_external_test/clean_cifs/val_5'
_cell_length_a 29.87100
_cell_length_b 19.24670
_cell_length_c 19.40410
_cell_angle_alpha 90.00000
_cell_angle_beta  90.00000
_cell_angle_gamma 90.00000
_space_group_name_H-M_alt      'P 1'


loop_
_space_group_symop_operation_xyz
  'x, y, z' 

loop_
_atom_site_label
_atom_site_fract_x
_atom_site_fract_y
_atom_site_fract_z
_atom_site_type_symbol
O          0.0   0.0192   0.5449     O
O          0.0   0.0192   0.9551     O
Zr         0.0   0.0227   0.6596    Zr
Zr         0.0   0.0227   0.8404    Zr
O          0.0   0.0919   0.1751     O
O          0.0   0.0919   0.3249     O
Zr         0.0   0.2069   0.6604    Zr
Zr         0.0   0.2069   0.8396    Zr
O          0.0    0.209   0.5474     O
O          0.0    0.209   0.9526     O
O          0.0   0.3198   0.6942     O
O          0.0   0.3198   0.8058     O
C          0.0     0.34     0.75     C
H          0.0  0.39658     0.75     H
H          0.0  0.60342     0.25     H
C          0.0     0.66     0.25     C
O          0.0   0.6802   0.1942     O
O          0.0   0.6802   0.3058     O
O          0.0    0.791   0.0474     O
O          0.0    0.791   0.4526     O
Zr         0.0   0.7931   0.1604    Zr
Zr         0.0   0.7931   0.3396    Zr
O          0.0   0.9081   0.6751     O
O          0.0   0.9081   0.8249     O
Zr         0.0   0.9773   0.1596    Zr
Zr         0.0   0.9773   0.3404    Zr
O          0.0   0.9808   0.0449     O
O          0.0   0.9808   0.4551     O
H      0.02835  0.00206  0.47153     H
H      0.02835  0.99794  0.52847     H
H      0.02851  0.22953  0.96929     H
H      0.02851  0.77047  0.03071     H
H      0.02921  0.11132  0.16008     H
H      0.02921  0.88868  0.83992     H
O       0.0414   0.1144   0.6584     O
O       0.0414   0.1144   0.8416     O
O       0.0414   0.8856   0.1584     O
O       0.0414   0.8856   0.3416     O
O       0.0416   0.2045     0.75     O
O       0.0416   0.7955     0.25     O
O       0.0437   0.0225     0.75     O
O       0.0437   0.9775     0.25     O
O       0.0678   0.0152   0.1223     O
O       0.0678   0.0152   0.3777     O
O       0.0678   0.2489   0.6236     O
O       0.0678   0.2489   0.8764     O
O       0.0678   0.7511   0.1236     O
O       0.0678   0.7511   0.3764     O
O       0.0678   0.9848   0.6223     O
O       0.0678   0.9848   0.8777     O
Zr      0.0824   0.1142     0.75    Zr
Zr      0.0824   0.8858     0.25    Zr
H      0.09992  0.30616  0.51874     H
H      0.09992  0.30616  0.98126     H
H      0.09992  0.69384  0.01874     H
H      0.09992  0.69384  0.48126     H
H       0.1009  0.08024  0.02011     H
H       0.1009  0.08024  0.47989     H
H       0.1009  0.91976  0.52011     H
H       0.1009  0.91976  0.97989     H
C       0.1067   0.2237   0.6386     C
C       0.1067   0.2237   0.8614     C
C       0.1067   0.7763   0.1386     C
C       0.1067   0.7763   0.3614     C
C       0.1079   0.0022   0.1397     C
C       0.1079   0.0022   0.3603     C
C       0.1079   0.9978   0.6397     C
C       0.1079   0.9978   0.8603     C
O       0.1186   0.0478   0.6825     O
O       0.1186   0.0478   0.8175     O
O       0.1186   0.9522   0.1825     O
O       0.1186   0.9522   0.3175     O
O       0.1221   0.1818   0.6794     O
O       0.1221   0.1818   0.8206     O
O       0.1221   0.8182   0.1794     O
O       0.1221   0.8182   0.3206     O
C       0.1336   0.3037   0.5401     C
C       0.1336   0.3037   0.9599     C
C       0.1336   0.6963   0.0401     C
C       0.1336   0.6963   0.4599     C
C       0.1348   0.0734   0.0396     C
C       0.1348   0.0734   0.4604     C
C       0.1348   0.9266   0.5396     C
C       0.1348   0.9266   0.9604     C
C       0.1396   0.2657   0.5967     C
C       0.1396   0.2657   0.9033     C
C       0.1396   0.7343   0.0967     C
C       0.1396   0.7343   0.4033     C
C        0.145   0.0362   0.0981     C
C        0.145   0.0362   0.4019     C
C        0.145   0.9638   0.5981     C
C        0.145   0.9638   0.9019     C
H      0.15628  0.36912  0.03674     H
H      0.15628  0.36912  0.46326     H
H      0.15628  0.63088  0.53674     H
H      0.15628  0.63088  0.96326     H
C        0.165   0.3382   0.5083     C
C        0.165   0.3382   0.9917     C
C        0.165   0.6618   0.0083     C
C        0.165   0.6618   0.4917     C
H      0.16689  0.13064  0.53921     H
H      0.16689  0.13064  0.96079     H
H      0.16689  0.86937  0.03921     H
H      0.16689  0.86937  0.46079     H
C       0.1727   0.1014    0.008     C
C       0.1727   0.1014    0.492     C
C       0.1727   0.8986    0.508     C
C       0.1727   0.8986    0.992     C
C       0.1876   0.2647    0.621     C
C       0.1876   0.2647    0.879     C
C       0.1876   0.7353    0.121     C
C       0.1876   0.7353    0.379     C
C         0.19   0.0302   0.1236     C
C         0.19   0.0302   0.3764     C
C         0.19   0.9698   0.6236     C
C         0.19   0.9698   0.8764     C
H      0.19625   0.2361  0.66756     H
H      0.19625   0.2361  0.83244     H
H      0.19625   0.7639  0.16756     H
H      0.19625   0.7639  0.33244     H
H      0.19694  0.00188  0.66858     H
H      0.19694  0.00188  0.83142     H
H      0.19694  0.99812  0.16858     H
H      0.19694  0.99812  0.33142     H
C       0.2095   0.3366   0.5304     C
C       0.2095   0.3366   0.9696     C
C       0.2095   0.6634   0.0304     C
C       0.2095   0.6634   0.4696     C
C       0.2175   0.0964   0.0298     C
C       0.2175   0.0964   0.4702     C
C       0.2175   0.9036   0.5298     C
C       0.2175   0.9036   0.9702     C
C       0.2197   0.2983   0.5864     C
C       0.2197   0.2983   0.9136     C
C       0.2197   0.7017   0.0864     C
C       0.2197   0.7017   0.4136     C
C       0.2232   0.0638   0.0923     C
C       0.2232   0.0638   0.4077     C
C       0.2232   0.9362   0.5923     C
C       0.2232   0.9362   0.9077     C
H      0.24406  0.43445  0.61694     H
H      0.24406  0.43445  0.88306     H
H      0.24406  0.56556  0.11694     H
H      0.24406  0.56556  0.38306     H
H      0.24567  0.20531  0.10359     H
H      0.24567  0.20531  0.39641     H
H      0.24567  0.79469  0.60359     H
H      0.24567  0.79469  0.89641     H
O       0.2478   0.3703   0.0712     O
O       0.2478   0.3703   0.4288     O
O       0.2478   0.6297   0.5712     O
O       0.2478   0.6297   0.9288     O
C       0.2498   0.3711   0.0094     C
C       0.2498   0.3711   0.4906     C
C       0.2498   0.6289   0.5094     C
C       0.2498   0.6289   0.9906     C
C       0.2502   0.1289   0.5094     C
C       0.2502   0.1289   0.9906     C
C       0.2502   0.8711   0.0094     C
C       0.2502   0.8711   0.4906     C
O       0.2522   0.1297   0.5712     O
O       0.2522   0.1297   0.9288     O
O       0.2522   0.8703   0.0712     O
O       0.2522   0.8703   0.4288     O
H      0.25433  0.29469  0.60359     H
H      0.25433  0.29469  0.89641     H
H      0.25433  0.70531  0.10359     H
H      0.25433  0.70531  0.39641     H
H      0.25594  0.06556  0.11694     H
H      0.25594  0.06556  0.38306     H
H      0.25594  0.93444  0.61694     H
H      0.25594  0.93444  0.88306     H
C       0.2768   0.4362   0.5923     C
C       0.2768   0.4362   0.9077     C
C       0.2768   0.5638   0.0923     C
C       0.2768   0.5638   0.4077     C
C       0.2803   0.2017   0.0864     C
C       0.2803   0.2017   0.4136     C
C       0.2803   0.7983   0.5864     C
C       0.2803   0.7983   0.9136     C
C       0.2825   0.4036   0.5298     C
C       0.2825   0.4036   0.9702     C
C       0.2825   0.5964   0.0298     C
C       0.2825   0.5964   0.4702     C
C       0.2905   0.1634   0.0304     C
C       0.2905   0.1634   0.4696     C
C       0.2905   0.8366   0.5304     C
C       0.2905   0.8366   0.9696     C
H      0.30306  0.49813  0.16858     H
H      0.30306  0.49813  0.33142     H
H      0.30306  0.50187  0.66858     H
H      0.30306  0.50187  0.83142     H
H      0.30375  0.26391  0.16756     H
H      0.30375  0.26391  0.33244     H
H      0.30375   0.7361  0.66756     H
H      0.30375   0.7361  0.83244     H
C         0.31   0.4698   0.6236     C
C         0.31   0.4698   0.8764     C
C         0.31   0.5302   0.1236     C
C         0.31   0.5302   0.3764     C
C       0.3124   0.2353    0.121     C
C       0.3124   0.2353    0.379     C
C       0.3124   0.7647    0.621     C
C       0.3124   0.7647    0.879     C
C       0.3273   0.3986    0.508     C
C       0.3273   0.3986    0.992     C
C       0.3273   0.6014    0.008     C
C       0.3273   0.6014    0.492     C
H      0.33311  0.36936  0.03921     H
H      0.33311  0.36936  0.46079     H
H      0.33311  0.63063  0.53921     H
H      0.33311  0.63063  0.96079     H
C        0.335   0.1618   0.0083     C
C        0.335   0.1618   0.4917     C
C        0.335   0.8382   0.5083     C
C        0.335   0.8382   0.9917     C
H      0.34372  0.13088  0.53674     H
H      0.34372  0.13088  0.96326     H
H      0.34372  0.86912  0.03674     H
H      0.34372  0.86912  0.46326     H
C        0.355   0.4638   0.5981     C
C        0.355   0.4638   0.9019     C
C        0.355   0.5362   0.0981     C
C        0.355   0.5362   0.4019     C
C       0.3604   0.2343   0.0967     C
C       0.3604   0.2343   0.4033     C
C       0.3604   0.7657   0.5967     C
C       0.3604   0.7657   0.9033     C
C       0.3652   0.4266   0.5396     C
C       0.3652   0.4266   0.9604     C
C       0.3652   0.5734   0.0396     C
C       0.3652   0.5734   0.4604     C
C       0.3664   0.1963   0.0401     C
C       0.3664   0.1963   0.4599     C
C       0.3664   0.8037   0.5401     C
C       0.3664   0.8037   0.9599     C
O       0.3779   0.3182   0.1794     O
O       0.3779   0.3182   0.3206     O
O       0.3779   0.6818   0.6794     O
O       0.3779   0.6818   0.8206     O
O       0.3814   0.4522   0.1825     O
O       0.3814   0.4522   0.3175     O
O       0.3814   0.5478   0.6825     O
O       0.3814   0.5478   0.8175     O
C       0.3921   0.4978   0.6397     C
C       0.3921   0.4978   0.8603     C
C       0.3921   0.5022   0.1397     C
C       0.3921   0.5022   0.3603     C
C       0.3933   0.2763   0.1386     C
C       0.3933   0.2763   0.3614     C
C       0.3933   0.7237   0.6386     C
C       0.3933   0.7237   0.8614     C
H       0.3991  0.41976  0.52011     H
H       0.3991  0.41976  0.97989     H
H       0.3991  0.58024  0.02011     H
H       0.3991  0.58024  0.47989     H
H      0.40008  0.19384  0.01874     H
H      0.40008  0.19384  0.48126     H
H      0.40008  0.80616  0.51874     H
H      0.40008  0.80616  0.98126     H
Zr      0.4176   0.3858     0.25    Zr
Zr      0.4176   0.6142     0.75    Zr
O       0.4322   0.2511   0.1236     O
O       0.4322   0.2511   0.3764     O
O       0.4322   0.4848   0.6223     O
O       0.4322   0.4848   0.8777     O
O       0.4322   0.5152   0.1223     O
O       0.4322   0.5152   0.3777     O
O       0.4322   0.7489   0.6236     O
O       0.4322   0.7489   0.8764     O
O       0.4563   0.4775     0.25     O
O       0.4563   0.5225     0.75     O
O       0.4584   0.2955     0.25     O
O       0.4584   0.7045     0.75     O
O       0.4586   0.3856   0.1584     O
O       0.4586   0.3856   0.3416     O
O       0.4586   0.6144   0.6584     O
O       0.4586   0.6144   0.8416     O
H      0.47079  0.38868  0.66008     H
H      0.47149  0.72953  0.53071     H
H      0.47165  0.49794  0.97153     H
H      0.47425  0.50903  0.02868     H
H      0.47425  0.50903  0.47132     H
H      0.47447  0.26248  0.03086     H
H      0.47447  0.26248  0.46914     H
H      0.47556  0.61305  0.14748     H
H      0.47556  0.61305  0.35252     H
H      0.49523  0.60245  0.27535     H
H      0.49703   0.3391  0.47054     H
H      0.49741  0.43287  0.02639     H
H          0.5  0.10342     0.25     H
C          0.5     0.16     0.25     C
O          0.5   0.1802   0.1942     O
O          0.5   0.1802   0.3058     O
O          0.5    0.291   0.0474     O
O          0.5    0.291   0.4526     O
Zr         0.5   0.2931   0.1604    Zr
Zr         0.5   0.2931   0.3396    Zr
O          0.5   0.4081   0.6751     O
O          0.5   0.4081   0.8249     O
Zr         0.5   0.4773   0.1596    Zr
Zr         0.5   0.4773   0.3404    Zr
O          0.5   0.4808   0.0449     O
O          0.5   0.4808   0.4551     O
O          0.5   0.5192   0.5449     O
O          0.5   0.5192   0.9551     O
Zr         0.5   0.5227   0.6596    Zr
Zr         0.5   0.5227   0.8404    Zr
O          0.5   0.5919   0.1751     O
O          0.5   0.5919   0.3249     O
Zr         0.5   0.7069   0.6604    Zr
Zr         0.5   0.7069   0.8396    Zr
O          0.5    0.709   0.5474     O
O          0.5    0.709   0.9526     O
O          0.5   0.8198   0.6942     O
O          0.5   0.8198   0.8058     O
C          0.5     0.84     0.75     C
H          0.5  0.89658     0.75     H
H      0.50259  0.56713  0.52639     H
H      0.50297   0.6609  0.97054     H
H      0.50477  0.39755  0.77535     H
H      0.52444  0.38695  0.64748     H
H      0.52444  0.38695  0.85252     H
H      0.52553  0.73752  0.53086     H
H      0.52553  0.73752  0.96914     H
H      0.52575  0.49097  0.52868     H
H      0.52575  0.49097  0.97132     H
H      0.52835  0.50206  0.47153     H
H      0.52851  0.27047  0.03071     H
H      0.52921  0.61132  0.16008     H
O       0.5414   0.3856   0.1584     O
O       0.5414   0.3856   0.3416     O
O       0.5414   0.6144   0.6584     O
O       0.5414   0.6144   0.8416     O
O       0.5416   0.2955     0.25     O
O       0.5416   0.7045     0.75     O
O       0.5437   0.4775     0.25     O
O       0.5437   0.5225     0.75     O
O       0.5678   0.2511   0.1236     O
O       0.5678   0.2511   0.3764     O
O       0.5678   0.4848   0.6223     O
O       0.5678   0.4848   0.8777     O
O       0.5678   0.5152   0.1223     O
O       0.5678   0.5152   0.3777     O
O       0.5678   0.7489   0.6236     O
O       0.5678   0.7489   0.8764     O
Zr      0.5824   0.3858     0.25    Zr
Zr      0.5824   0.6142     0.75    Zr
H      0.59992  0.19384  0.01874     H
H      0.59992  0.19384  0.48126     H
H      0.59992  0.80616  0.51874     H
H      0.59992  0.80616  0.98126     H
H       0.6009  0.41976  0.52011     H
H       0.6009  0.41976  0.97989     H
H       0.6009  0.58024  0.02011     H
H       0.6009  0.58024  0.47989     H
C       0.6067   0.2763   0.1386     C
C       0.6067   0.2763   0.3614     C
C       0.6067   0.7237   0.6386     C
C       0.6067   0.7237   0.8614     C
C       0.6079   0.4978   0.6397     C
C       0.6079   0.4978   0.8603     C
C       0.6079   0.5022   0.1397     C
C       0.6079   0.5022   0.3603     C
O       0.6186   0.4522   0.1825     O
O       0.6186   0.4522   0.3175     O
O       0.6186   0.5478   0.6825     O
O       0.6186   0.5478   0.8175     O
O       0.6221   0.3182   0.1794     O
O       0.6221   0.3182   0.3206     O
O       0.6221   0.6818   0.6794     O
O       0.6221   0.6818   0.8206     O
C       0.6336   0.1963   0.0401     C
C       0.6336   0.1963   0.4599     C
C       0.6336   0.8037   0.5401     C
C       0.6336   0.8037   0.9599     C
C       0.6348   0.4266   0.5396     C
C       0.6348   0.4266   0.9604     C
C       0.6348   0.5734   0.0396     C
C       0.6348   0.5734   0.4604     C
C       0.6396   0.2343   0.0967     C
C       0.6396   0.2343   0.4033     C
C       0.6396   0.7657   0.5967     C
C       0.6396   0.7657   0.9033     C
C        0.645   0.4638   0.5981     C
C        0.645   0.4638   0.9019     C
C        0.645   0.5362   0.0981     C
C        0.645   0.5362   0.4019     C
H      0.65628  0.13088  0.53674     H
H      0.65628  0.13088  0.96326     H
H      0.65628  0.86912  0.03674     H
H      0.65628  0.86912  0.46326     H
C        0.665   0.1618   0.0083     C
C        0.665   0.1618   0.4917     C
C        0.665   0.8382   0.5083     C
C        0.665   0.8382   0.9917     C
H      0.66689  0.36936  0.03921     H
H      0.66689  0.36936  0.46079     H
H      0.66689  0.63063  0.53921     H
H      0.66689  0.63063  0.96079     H
C       0.6727   0.3986    0.508     C
C       0.6727   0.3986    0.992     C
C       0.6727   0.6014    0.008     C
C       0.6727   0.6014    0.492     C
C       0.6876   0.2353    0.121     C
C       0.6876   0.2353    0.379     C
C       0.6876   0.7647    0.621     C
C       0.6876   0.7647    0.879     C
C         0.69   0.4698   0.6236     C
C         0.69   0.4698   0.8764     C
C         0.69   0.5302   0.1236     C
C         0.69   0.5302   0.3764     C
H      0.69625  0.26391  0.16756     H
H      0.69625  0.26391  0.33244     H
H      0.69625   0.7361  0.66756     H
H      0.69625   0.7361  0.83244     H
H      0.69694  0.49813  0.16858     H
H      0.69694  0.49813  0.33142     H
H      0.69694  0.50187  0.66858     H
H      0.69694  0.50187  0.83142     H
C       0.7095   0.1634   0.0304     C
C       0.7095   0.1634   0.4696     C
C       0.7095   0.8366   0.5304     C
C       0.7095   0.8366   0.9696     C
C       0.7175   0.4036   0.5298     C
C       0.7175   0.4036   0.9702     C
C       0.7175   0.5964   0.0298     C
C       0.7175   0.5964   0.4702     C
C       0.7197   0.2017   0.0864     C
C       0.7197   0.2017   0.4136     C
C       0.7197   0.7983   0.5864     C
C       0.7197   0.7983   0.9136     C
C       0.7232   0.4362   0.5923     C
C       0.7232   0.4362   0.9077     C
C       0.7232   0.5638   0.0923     C
C       0.7232   0.5638   0.4077     C
H      0.74406  0.06556  0.11694     H
H      0.74406  0.06556  0.38306     H
H      0.74406  0.93444  0.61694     H
H      0.74406  0.93444  0.88306     H
H      0.74567  0.29469  0.60359     H
H      0.74567  0.29469  0.89641     H
H      0.74567  0.70531  0.10359     H
H      0.74567  0.70531  0.39641     H
O       0.7478   0.1297   0.5712     O
O       0.7478   0.1297   0.9288     O
O       0.7478   0.8703   0.0712     O
O       0.7478   0.8703   0.4288     O
C       0.7498   0.1289   0.5094     C
C       0.7498   0.1289   0.9906     C
C       0.7498   0.8711   0.0094     C
C       0.7498   0.8711   0.4906     C
C       0.7502   0.3711   0.0094     C
C       0.7502   0.3711   0.4906     C
C       0.7502   0.6289   0.5094     C
C       0.7502   0.6289   0.9906     C
O       0.7522   0.3703   0.0712     O
O       0.7522   0.3703   0.4288     O
O       0.7522   0.6297   0.5712     O
O       0.7522   0.6297   0.9288     O
H      0.75433  0.20531  0.10359     H
H      0.75433  0.20531  0.39641     H
H      0.75433  0.79469  0.60359     H
H      0.75433  0.79469  0.89641     H
H      0.75594  0.43445  0.61694     H
H      0.75594  0.43445  0.88306     H
H      0.75594  0.56556  0.11694     H
H      0.75594  0.56556  0.38306     H
C       0.7768   0.0638   0.0923     C
C       0.7768   0.0638   0.4077     C
C       0.7768   0.9362   0.5923     C
C       0.7768   0.9362   0.9077     C
C       0.7803   0.2983   0.5864     C
C       0.7803   0.2983   0.9136     C
C       0.7803   0.7017   0.0864     C
C       0.7803   0.7017   0.4136     C
C       0.7825   0.0964   0.0298     C
C       0.7825   0.0964   0.4702     C
C       0.7825   0.9036   0.5298     C
C       0.7825   0.9036   0.9702     C
C       0.7905   0.3366   0.5304     C
C       0.7905   0.3366   0.9696     C
C       0.7905   0.6634   0.0304     C
C       0.7905   0.6634   0.4696     C
H      0.80306  0.00188  0.66858     H
H      0.80306  0.00188  0.83142     H
H      0.80306  0.99812  0.16858     H
H      0.80306  0.99812  0.33142     H
H      0.80375   0.2361  0.66756     H
H      0.80375   0.2361  0.83244     H
H      0.80375   0.7639  0.16756     H
H      0.80375   0.7639  0.33244     H
C         0.81   0.0302   0.1236     C
C         0.81   0.0302   0.3764     C
C         0.81   0.9698   0.6236     C
C         0.81   0.9698   0.8764     C
C       0.8124   0.2647    0.621     C
C       0.8124   0.2647    0.879     C
C       0.8124   0.7353    0.121     C
C       0.8124   0.7353    0.379     C
C       0.8273   0.1014    0.008     C
C       0.8273   0.1014    0.492     C
C       0.8273   0.8986    0.508     C
C       0.8273   0.8986    0.992     C
H      0.83311  0.13064  0.53921     H
H      0.83311  0.13064  0.96079     H
H      0.83311  0.86937  0.03921     H
H      0.83311  0.86937  0.46079     H
C        0.835   0.3382   0.5083     C
C        0.835   0.3382   0.9917     C
C        0.835   0.6618   0.0083     C
C        0.835   0.6618   0.4917     C
H      0.84372  0.36912  0.03674     H
H      0.84372  0.36912  0.46326     H
H      0.84372  0.63088  0.53674     H
H      0.84372  0.63088  0.96326     H
C        0.855   0.0362   0.0981     C
C        0.855   0.0362   0.4019     C
C        0.855   0.9638   0.5981     C
C        0.855   0.9638   0.9019     C
C       0.8604   0.2657   0.5967     C
C       0.8604   0.2657   0.9033     C
C       0.8604   0.7343   0.0967     C
C       0.8604   0.7343   0.4033     C
C       0.8652   0.0734   0.0396     C
C       0.8652   0.0734   0.4604     C
C       0.8652   0.9266   0.5396     C
C       0.8652   0.9266   0.9604     C
C       0.8664   0.3037   0.5401     C
C       0.8664   0.3037   0.9599     C
C       0.8664   0.6963   0.0401     C
C       0.8664   0.6963   0.4599     C
O       0.8779   0.1818   0.6794     O
O       0.8779   0.1818   0.8206     O
O       0.8779   0.8182   0.1794     O
O       0.8779   0.8182   0.3206     O
O       0.8814   0.0478   0.6825     O
O       0.8814   0.0478   0.8175     O
O       0.8814   0.9522   0.1825     O
O       0.8814   0.9522   0.3175     O
C       0.8921   0.0022   0.1397     C
C       0.8921   0.0022   0.3603     C
C       0.8921   0.9978   0.6397     C
C       0.8921   0.9978   0.8603     C
C       0.8933   0.2237   0.6386     C
C       0.8933   0.2237   0.8614     C
C       0.8933   0.7763   0.1386     C
C       0.8933   0.7763   0.3614     C
H       0.8991  0.08024  0.02011     H
H       0.8991  0.08024  0.47989     H
H       0.8991  0.91976  0.52011     H
H       0.8991  0.91976  0.97989     H
H      0.90008  0.30616  0.51874     H
H      0.90008  0.30616  0.98126     H
H      0.90008  0.69384  0.01874     H
H      0.90008  0.69384  0.48126     H
Zr      0.9176   0.1142     0.75    Zr
Zr      0.9176   0.8858     0.25    Zr
O       0.9322   0.0152   0.1223     O
O       0.9322   0.0152   0.3777     O
O       0.9322   0.2489   0.6236     O
O       0.9322   0.2489   0.8764     O
O       0.9322   0.7511   0.1236     O
O       0.9322   0.7511   0.3764     O
O       0.9322   0.9848   0.6223     O
O       0.9322   0.9848   0.8777     O
O       0.9563   0.0225     0.75     O
O       0.9563   0.9775     0.25     O
O       0.9584   0.2045     0.75     O
O       0.9584   0.7955     0.25     O
O       0.9586   0.1144   0.6584     O
O       0.9586   0.1144   0.8416     O
O       0.9586   0.8856   0.1584     O
O       0.9586   0.8856   0.3416     O
H      0.97425  0.00903  0.02868     H
H      0.97425  0.00903  0.47132     H
H      0.97425  0.99097  0.52868     H
H      0.97425  0.99097  0.97132     H
H      0.97447  0.23752  0.53086     H
H      0.97447  0.23752  0.96914     H
H      0.97447  0.76248  0.03086     H
H      0.97447  0.76248  0.46914     H
H      0.97556  0.11305  0.14748     H
H      0.97556  0.11305  0.35252     H
H      0.97556  0.88695  0.64748     H
H      0.97556  0.88695  0.85252     H
H      0.99523  0.10244  0.27535     H
H      0.99523  0.89755  0.72465     H
H      0.99703   0.1609  0.52946     H
H      0.99703   0.8391  0.47054     H
H      0.99741  0.06713   0.9736     H
H      0.99741  0.93287  0.02639     H
