data_I
_chemical_name_common  '/home/zhangsd/repos/MofS-CGCNN/CGCNN_MT/data/WS24v2_external_test/clean_cifs/val_4'
_cell_length_a 34.92670
_cell_length_b  9.26820
_cell_length_c 27.29360
_cell_angle_alpha 90.00000
_cell_angle_beta  123.19300
_cell_angle_gamma 90.00000
_space_group_name_H-M_alt      'P 1'


loop_
_space_group_symop_operation_xyz
  'x, y, z' 

loop_
_atom_site_label
_atom_site_fract_x
_atom_site_fract_y
_atom_site_fract_z
_atom_site_type_symbol
O          0.0  0.38835     0.75     O
O          0.0  0.61175     0.25     O
H       0.0015   0.1446   0.9733     H
H       0.0015   0.8554   0.4733     H
H       0.0056   0.3938   0.1959     H
H       0.0056   0.6062   0.6959     H
C      0.00833  0.35215  0.51162     C
C      0.00833  0.64795  0.01162     C
C      0.01881  0.20415  0.52424     C
C      0.01881  0.79595  0.02424     C
C      0.02473  0.41647  0.31822     C
C      0.02473  0.58367  0.81822     C
C      0.03114  0.41195  0.99592     C
C      0.03114  0.58815  0.49592     C
C       0.0347  0.46995  0.79592     C
C       0.0347  0.53015  0.29592     C
C      0.03946  0.44095  0.50602     C
C      0.03946  0.55915  0.00602     C
H        0.051   0.3714   0.9147     H
H        0.051   0.6286   0.4147     H
H        0.053   0.2543   0.3766     H
H        0.053   0.7457   0.8766     H
C      0.05802  0.14627  0.53284     C
C      0.05802  0.85387  0.03284     C
C      0.05976  0.33425  0.36212     C
C      0.05976  0.66585  0.86212     C
H       0.0647   0.0494   0.5427     H
H       0.0647   0.9506   0.0427     H
C      0.06485  0.31624  0.99452     C
C      0.06485  0.68384  0.49452     C
C      0.06926  0.31317  0.94722     C
C      0.06926  0.68697  0.44722     C
C      0.07883  0.42735  0.81922     C
C      0.07883  0.57275  0.31922     C
C       0.0794  0.37305  0.51394     C
C       0.0794  0.62705  0.01394     C
H       0.0852   0.3452   0.8053     H
H       0.0852   0.6548   0.3053     H
C      0.08842  0.23257  0.52664     C
C      0.08842  0.76757  0.02664     C
H       0.0917   0.2289   0.0741     H
H       0.0917   0.7711   0.5741     H
C      0.09316  0.22824  0.04112     C
C      0.09316  0.77184  0.54112     C
H       0.0998   0.4285   0.5102     H
H       0.0998   0.5715   0.0102     H
C      0.10136  0.22165  0.94912     C
C      0.10136  0.77845  0.44912     C
H       0.1045   0.2215   0.9174     H
H       0.1045   0.7785   0.4174     H
C      0.10506  0.37065  0.38452     C
C      0.10506  0.62945  0.88452     C
C      0.11387  0.49165  0.36382     C
C      0.11387  0.50845  0.86382     C
H       0.1145   0.1919   0.5313     H
H       0.1145   0.8081   0.0313     H
C      0.12362  0.13924  0.03896     C
C      0.12362  0.86084  0.53896     C
N      0.12781  0.13414  0.99345     N
N      0.12781  0.86594  0.49345     N
O       0.1302  0.15294  0.43616     O
O       0.1302  0.84714  0.93616     O
H       0.1422   0.0797   0.0709     H
H       0.1422   0.9203   0.5709     H
C      0.14255  0.27424   0.4286     C
C      0.14255  0.72584   0.9286     C
H        0.144   0.4798   0.8801     H
H        0.144   0.5202   0.3801     H
H       0.1714   0.1342   0.2247     H
H       0.1714   0.8658   0.7247     H
Zn     0.17203  0.00628  0.49009    Zn
Zn     0.17203  0.99373  0.99009    Zn
H       0.1742   0.4464   0.0899     H
H       0.1742   0.5536   0.5899     H
O      0.17996  0.14164  0.93572     O
O      0.17996  0.85844  0.43572     O
O      0.18239  0.31924  0.45456     O
O      0.18239  0.68084  0.95456     O
H        0.194   0.2782   0.8691     H
H        0.194   0.7218   0.3691     H
C      0.19615  0.19525   0.2476     C
C      0.19615  0.80485   0.7476     C
O      0.19665  0.24604  0.16411     O
O      0.19665  0.75404  0.66411     O
H        0.199   0.1668   0.3224     H
H        0.199   0.8332   0.8224     H
C      0.20078  0.40095  0.09812     C
C      0.20078  0.59915  0.59812     C
O       0.2009  0.08064  0.56948     O
O       0.2009  0.91944  0.06948     O
H        0.206    0.065   0.6622     H
H        0.206    0.935   0.1622     H
H       0.2086   0.4863   0.5413     H
H       0.2086   0.5137   0.0413     H
C      0.21257  0.21545  0.30584     C
C      0.21257  0.78465  0.80584     C
C      0.21501  0.07775  0.94661     C
C      0.21501  0.92235  0.44661     C
C      0.21672  0.26635   0.2236     C
C      0.21672  0.73375   0.7236     C
C      0.22014  0.29175  0.13901     C
C      0.22014  0.70835  0.63901     C
C      0.22069  0.23267  0.87752     C
C      0.22069  0.76747  0.37752     C
C      0.22159  0.44135  0.06942     C
C      0.22159  0.55875  0.56942     C
H       0.2286   0.3496   0.8214     H
H       0.2286   0.6504   0.3214     H
O      0.22983  0.02734  0.48214     O
O      0.22983  0.97274  0.98214     O
C      0.23099  0.12485   0.6852     C
C      0.23099  0.87525   0.1852     C
H       0.2334   0.0943   0.7602     H
H       0.2334   0.9057   0.2602     H
C       0.2342  0.16744  0.59706     C
C       0.2342  0.83264  0.09706     C
C      0.23882  0.12434  0.91793     C
C      0.23882  0.87574  0.41793     C
C      0.24121  0.27547  0.84882     C
C      0.24121  0.72467  0.34882     C
O      0.24583  0.26924  0.42285     O
O      0.24583  0.73084  0.92285     O
C       0.2469  0.14265  0.74358     C
C       0.2469  0.85745  0.24358     C
C      0.24879  0.30664  0.33995     C
C      0.24879  0.69344  0.83995     C
Zn        0.25     0.25      0.5    Zn
Zn        0.25     0.75      0.0    Zn
C      0.25121  0.19344  0.66005     C
C      0.25121  0.80664  0.16005     C
C       0.2531  0.35745  0.25642     C
C       0.2531  0.64265  0.75642     C
O      0.25417  0.23084  0.57715     O
O      0.25417  0.76924  0.07715     O
C      0.25879  0.22467  0.15122     C
C      0.25879  0.77547  0.65122     C
C      0.26118  0.37574  0.08207     C
C      0.26118  0.62434  0.58207     C
C       0.2658  0.33264  0.40294     C
C       0.2658  0.66744  0.90294     C
H       0.2666   0.4057   0.2398     H
H       0.2666   0.5943   0.7398     H
C      0.26901  0.37525   0.3148     C
C      0.26901  0.62485   0.8148     C
O      0.27017  0.47274  0.51786     O
O      0.27017  0.52734  0.01786     O
H       0.2714   0.1504   0.1786     H
H       0.2714   0.8496   0.6786     H
C      0.27841  0.05875  0.93062     C
C      0.27841  0.94135  0.43062     C
C      0.27931  0.26747  0.12252     C
C      0.27931  0.73267  0.62252     C
C      0.27986  0.20835  0.86099     C
C      0.27986  0.79175  0.36099     C
C      0.28328  0.23375   0.7764     C
C      0.28328  0.76635   0.2764     C
C      0.28499  0.42235  0.05339     C
C      0.28499  0.57775  0.55339     C
C      0.28743  0.28465  0.69416     C
C      0.28743  0.71545  0.19416     C
H       0.2914   0.0137   0.4587     H
H       0.2914   0.9863   0.9587     H
H        0.294    0.435   0.3378     H
H        0.294    0.565   0.8378     H
O       0.2991  0.41944  0.43052     O
O       0.2991  0.58064  0.93052     O
C      0.29922  0.09915  0.90192     C
C      0.29922  0.90095  0.40192     C
H        0.301   0.3332   0.6776     H
H        0.301   0.6668   0.1776     H
O      0.30335  0.25404  0.83589     O
O      0.30335  0.74604  0.33589     O
C      0.30385  0.30485   0.7524     C
C      0.30385  0.69525   0.2524     C
H        0.306   0.2218   0.1309     H
H        0.306   0.7782   0.6309     H
O      0.31763  0.18084  0.54544     O
O      0.31763  0.81924  0.04544     O
O      0.32004  0.35844  0.06428     O
O      0.32004  0.64164  0.56428     O
H       0.3258   0.0536   0.9101     H
H       0.3258   0.9464   0.4101     H
Zn     0.32797  0.49373  0.50991    Zn
Zn     0.32797  0.50628  0.00991    Zn
H       0.3286   0.3658   0.7753     H
H       0.3286   0.6342   0.2753     H
H        0.356   0.0202   0.1199     H
H        0.356   0.9798   0.6199     H
C      0.35745  0.22584   0.5714     C
C      0.35745  0.77424   0.0714     C
H       0.3578   0.4203   0.9291     H
H       0.3578   0.5797   0.4291     H
O       0.3698  0.34714  0.56384     O
O       0.3698  0.65294  0.06384     O
N      0.37219  0.36594  0.00655     N
N      0.37219  0.63414  0.50655     N
C      0.37638  0.36084  0.96104     C
C      0.37638  0.63924  0.46104     C
H       0.3855   0.3081   0.4687     H
H       0.3855   0.6919   0.9687     H
C      0.38613  0.00845  0.63622     C
C      0.38613  0.99165  0.13622     C
C      0.39494  0.12945  0.61548     C
C      0.39494  0.87065  0.11548     C
H       0.3955   0.2785   0.0826     H
H       0.3955   0.7215   0.5826     H
C      0.39864  0.27845  0.05092     C
C      0.39864  0.72165  0.55092     C
H       0.4002   0.0715   0.4898     H
H       0.4002   0.9285   0.9898     H
C      0.40684  0.27184  0.95892     C
C      0.40684  0.72824  0.45892     C
H       0.4083   0.2711   0.9259     H
H       0.4083   0.7289   0.4259     H
C      0.41162  0.26757  0.47344     C
C      0.41162  0.73257  0.97344     C
H       0.4148   0.1548   0.1947     H
H       0.4148   0.8452   0.6947     H
C       0.4206  0.12705  0.48614     C
C       0.4206  0.87305  0.98614     C
C      0.42117  0.07275  0.18082     C
C      0.42117  0.92735  0.68082     C
C      0.43074  0.18697  0.05282     C
C      0.43074  0.81317  0.55282     C
C      0.43515  0.18384  0.00552     C
C      0.43515  0.81624  0.50552     C
H       0.4353   0.4506   0.4573     H
H       0.4353   0.5494   0.9573     H
C      0.44024  0.16585  0.63792     C
C      0.44024  0.83425  0.13792     C
C      0.44202  0.35387  0.46724     C
C      0.44202  0.64627  0.96724     C
H        0.447   0.2457   0.6234     H
H        0.447   0.7543   0.1234     H
H        0.449   0.1286   0.0853     H
H        0.449   0.8714   0.5853     H
C      0.46054  0.05915  0.49402     C
C      0.46054  0.94095  0.99402     C
C       0.4653  0.03015  0.20412     C
C       0.4653  0.96995  0.70412     C
C      0.46886  0.08815  0.00412     C
C      0.46886  0.91195  0.50412     C
C      0.47527  0.08367  0.68182     C
C      0.47527  0.91647  0.18182     C
C      0.48119  0.29595  0.47584     C
C      0.48119  0.70415  0.97584     C
C      0.49167  0.14795  0.48842     C
C      0.49167  0.85215  0.98842     C
H       0.4944   0.1062   0.8041     H
H       0.4944   0.8938   0.3041     H
H       0.4985   0.3554   0.0267     H
H       0.4985   0.6446   0.5267     H
O          0.5  0.11175     0.25     O
O          0.5  0.88835     0.75     O
H       0.5015   0.3554   0.4733     H
H       0.5015   0.6446   0.9733     H
H       0.5056   0.1062   0.6959     H
H       0.5056   0.8938   0.1959     H
C      0.50833  0.14795  0.01162     C
C      0.50833  0.85215  0.51162     C
C      0.51881  0.29595  0.02424     C
C      0.51881  0.70415  0.52424     C
C      0.52473  0.08367  0.81822     C
C      0.52473  0.91647  0.31822     C
C      0.53114  0.08815  0.49592     C
C      0.53114  0.91195  0.99592     C
C       0.5347  0.03015  0.29592     C
C       0.5347  0.96995  0.79592     C
C      0.53946  0.05915  0.00602     C
C      0.53946  0.94095  0.50602     C
H        0.551   0.1286   0.4147     H
H        0.551   0.8714   0.9147     H
H        0.553   0.2457   0.8766     H
H        0.553   0.7543   0.3766     H
C      0.55802  0.35387  0.03284     C
C      0.55802  0.64627  0.53284     C
C      0.55976  0.16585  0.86212     C
C      0.55976  0.83425  0.36212     C
H       0.5647   0.4506   0.0427     H
H       0.5647   0.5494   0.5427     H
C      0.56485  0.18384  0.49452     C
C      0.56485  0.81624  0.99452     C
C      0.56926  0.18697  0.44722     C
C      0.56926  0.81317  0.94722     C
C      0.57883  0.07275  0.31922     C
C      0.57883  0.92735  0.81922     C
C       0.5794  0.12705  0.01394     C
C       0.5794  0.87305  0.51394     C
H       0.5852   0.1548   0.3053     H
H       0.5852   0.8452   0.8053     H
C      0.58842  0.26757  0.02664     C
C      0.58842  0.73257  0.52664     C
H       0.5917   0.2711   0.5741     H
H       0.5917   0.7289   0.0741     H
C      0.59316  0.27184  0.54112     C
C      0.59316  0.72824  0.04112     C
H       0.5998   0.0715   0.0102     H
H       0.5998   0.9285   0.5102     H
C      0.60136  0.27845  0.44912     C
C      0.60136  0.72165  0.94912     C
H       0.6045   0.2785   0.4174     H
H       0.6045   0.7215   0.9174     H
C      0.60506  0.12945  0.88452     C
C      0.60506  0.87065  0.38452     C
C      0.61387  0.00845  0.86382     C
C      0.61387  0.99165  0.36382     C
H       0.6145   0.3081   0.0313     H
H       0.6145   0.6919   0.5313     H
C      0.62362  0.36084  0.53896     C
C      0.62362  0.63924  0.03896     C
N      0.62781  0.36594  0.49345     N
N      0.62781  0.63414  0.99345     N
O       0.6302  0.34714  0.93616     O
O       0.6302  0.65294  0.43616     O
H       0.6422   0.4203   0.5709     H
H       0.6422   0.5797   0.0709     H
C      0.64255  0.22584   0.9286     C
C      0.64255  0.77424   0.4286     C
H        0.644   0.0202   0.3801     H
H        0.644   0.9798   0.8801     H
H       0.6714   0.3658   0.7247     H
H       0.6714   0.6342   0.2247     H
Zn     0.67203  0.49373  0.99009    Zn
Zn     0.67203  0.50628  0.49009    Zn
H       0.6742   0.0536   0.5899     H
H       0.6742   0.9464   0.0899     H
O      0.67996  0.35844  0.43572     O
O      0.67996  0.64164  0.93572     O
O      0.68239  0.18084  0.95456     O
O      0.68239  0.81924  0.45456     O
H        0.694   0.2218   0.3691     H
H        0.694   0.7782   0.8691     H
C      0.69615  0.30485   0.7476     C
C      0.69615  0.69525   0.2476     C
O      0.69665  0.25404  0.66411     O
O      0.69665  0.74604  0.16411     O
H        0.699   0.3332   0.8224     H
H        0.699   0.6668   0.3224     H
C      0.70078  0.09915  0.59812     C
C      0.70078  0.90095  0.09812     C
O       0.7009  0.41944  0.06948     O
O       0.7009  0.58064  0.56948     O
H        0.706    0.435   0.1622     H
H        0.706    0.565   0.6622     H
H       0.7086   0.0137   0.0413     H
H       0.7086   0.9863   0.5413     H
C      0.71257  0.28465  0.80584     C
C      0.71257  0.71545  0.30584     C
C      0.71501  0.42235  0.44661     C
C      0.71501  0.57775  0.94661     C
C      0.71672  0.23375   0.7236     C
C      0.71672  0.76635   0.2236     C
C      0.72014  0.20835  0.63901     C
C      0.72014  0.79175  0.13901     C
C      0.72069  0.26747  0.37752     C
C      0.72069  0.73267  0.87752     C
C      0.72159  0.05875  0.56942     C
C      0.72159  0.94135  0.06942     C
H       0.7286   0.1504   0.3214     H
H       0.7286   0.8496   0.8214     H
O      0.72983  0.47274  0.98214     O
O      0.72983  0.52734  0.48214     O
C      0.73099  0.37525   0.1852     C
C      0.73099  0.62485   0.6852     C
H       0.7334   0.4057   0.2602     H
H       0.7334   0.5943   0.7602     H
C       0.7342  0.33264  0.09706     C
C       0.7342  0.66744  0.59706     C
C      0.73882  0.37574  0.41793     C
C      0.73882  0.62434  0.91793     C
C      0.74121  0.22467  0.34882     C
C      0.74121  0.77547  0.84882     C
O      0.74583  0.23084  0.92285     O
O      0.74583  0.76924  0.42285     O
C       0.7469  0.35745  0.24358     C
C       0.7469  0.64265  0.74358     C
C      0.74879  0.19344  0.83995     C
C      0.74879  0.80664  0.33995     C
Zn        0.75     0.25      0.0    Zn
Zn        0.75     0.75      0.5    Zn
C      0.75121  0.30664  0.16005     C
C      0.75121  0.69344  0.66005     C
C       0.7531  0.14265  0.75642     C
C       0.7531  0.85745  0.25642     C
O      0.75417  0.26924  0.07715     O
O      0.75417  0.73084  0.57715     O
C      0.75879  0.27547  0.65122     C
C      0.75879  0.72467  0.15122     C
C      0.76118  0.12434  0.58207     C
C      0.76118  0.87574  0.08207     C
C       0.7658  0.16744  0.90294     C
C       0.7658  0.83264  0.40294     C
H       0.7666   0.0943   0.7398     H
H       0.7666   0.9057   0.2398     H
C      0.76901  0.12485   0.8148     C
C      0.76901  0.87525   0.3148     C
O      0.77017  0.02734  0.01786     O
O      0.77017  0.97274  0.51786     O
H       0.7714   0.3496   0.6786     H
H       0.7714   0.6504   0.1786     H
C      0.77841  0.44135  0.43062     C
C      0.77841  0.55875  0.93062     C
C      0.77931  0.23267  0.62252     C
C      0.77931  0.76747  0.12252     C
C      0.77986  0.29175  0.36099     C
C      0.77986  0.70835  0.86099     C
C      0.78328  0.26635   0.2764     C
C      0.78328  0.73375   0.7764     C
C      0.78499  0.07775  0.55339     C
C      0.78499  0.92235  0.05339     C
C      0.78743  0.21545  0.19416     C
C      0.78743  0.78465  0.69416     C
H       0.7914   0.4863   0.9587     H
H       0.7914   0.5137   0.4587     H
H        0.794    0.065   0.8378     H
H        0.794    0.935   0.3378     H
O       0.7991  0.08064  0.93052     O
O       0.7991  0.91944  0.43052     O
C      0.79922  0.40095  0.40192     C
C      0.79922  0.59915  0.90192     C
H        0.801   0.1668   0.1776     H
H        0.801   0.8332   0.6776     H
O      0.80335  0.24604  0.33589     O
O      0.80335  0.75404  0.83589     O
C      0.80385  0.19525   0.2524     C
C      0.80385  0.80485   0.7524     C
H        0.806   0.2782   0.6309     H
H        0.806   0.7218   0.1309     H
O      0.81763  0.31924  0.04544     O
O      0.81763  0.68084  0.54544     O
O      0.82004  0.14164  0.56428     O
O      0.82004  0.85844  0.06428     O
H       0.8258   0.4464   0.4101     H
H       0.8258   0.5536   0.9101     H
Zn     0.82797  0.00628  0.00991    Zn
Zn     0.82797  0.99373  0.50991    Zn
H       0.8286   0.1342   0.2753     H
H       0.8286   0.8658   0.7753     H
H        0.856   0.4798   0.6199     H
H        0.856   0.5202   0.1199     H
C      0.85745  0.27424   0.0714     C
C      0.85745  0.72584   0.5714     C
H       0.8578   0.0797   0.4291     H
H       0.8578   0.9203   0.9291     H
O       0.8698  0.15294  0.06384     O
O       0.8698  0.84714  0.56384     O
N      0.87219  0.13414  0.50655     N
N      0.87219  0.86594  0.00655     N
C      0.87638  0.13924  0.46104     C
C      0.87638  0.86084  0.96104     C
H       0.8855   0.1919   0.9687     H
H       0.8855   0.8081   0.4687     H
C      0.88613  0.49165  0.13622     C
C      0.88613  0.50845  0.63622     C
C      0.89494  0.37065  0.11548     C
C      0.89494  0.62945  0.61548     C
H       0.8955   0.2215   0.5826     H
H       0.8955   0.7785   0.0826     H
C      0.89864  0.22165  0.55092     C
C      0.89864  0.77845  0.05092     C
H       0.9002   0.4285   0.9898     H
H       0.9002   0.5715   0.4898     H
C      0.90684  0.22824  0.45892     C
C      0.90684  0.77184  0.95892     C
H       0.9083   0.2289   0.4259     H
H       0.9083   0.7711   0.9259     H
C      0.91162  0.23257  0.97344     C
C      0.91162  0.76757  0.47344     C
H       0.9148   0.3452   0.6947     H
H       0.9148   0.6548   0.1947     H
C       0.9206  0.37305  0.98614     C
C       0.9206  0.62705  0.48614     C
C      0.92117  0.42735  0.68082     C
C      0.92117  0.57275  0.18082     C
C      0.93074  0.31317  0.55282     C
C      0.93074  0.68697  0.05282     C
C      0.93515  0.31624  0.50552     C
C      0.93515  0.68384  0.00552     C
H       0.9353   0.0494   0.9573     H
H       0.9353   0.9506   0.4573     H
C      0.94024  0.33425  0.13792     C
C      0.94024  0.66585  0.63792     C
C      0.94202  0.14627  0.96724     C
C      0.94202  0.85387  0.46724     C
H        0.947   0.2543   0.1234     H
H        0.947   0.7457   0.6234     H
H        0.949   0.3714   0.5853     H
H        0.949   0.6286   0.0853     H
C      0.96054  0.44095  0.99402     C
C      0.96054  0.55915  0.49402     C
C       0.9653  0.46995  0.70412     C
C       0.9653  0.53015  0.20412     C
C      0.96886  0.41195  0.50412     C
C      0.96886  0.58815  0.00412     C
C      0.97527  0.41647  0.18182     C
C      0.97527  0.58367  0.68182     C
C      0.98119  0.20415  0.97584     C
C      0.98119  0.79595  0.47584     C
C      0.99167  0.35215  0.98842     C
C      0.99167  0.64795  0.48842     C
H       0.9944   0.3938   0.3041     H
H       0.9944   0.6062   0.8041     H
H       0.9985   0.1446   0.5267     H
H       0.9985   0.8554   0.0267     H
