data_I
_chemical_name_common  '/home/zhangsd/repos/MofS-CGCNN/CGCNN_MT/data/WS24v2_external_test/clean_cifs/val_21'
_cell_length_a 17.12440
_cell_length_b 17.12440
_cell_length_c 24.15590
_cell_angle_alpha 90.00000
_cell_angle_beta  90.00000
_cell_angle_gamma 90.00000
_space_group_name_H-M_alt      'P 1'


loop_
_space_group_symop_operation_xyz
  'x, y, z' 

loop_
_atom_site_label
_atom_site_fract_x
_atom_site_fract_y
_atom_site_fract_z
_atom_site_type_symbol
Sc         0.0  0.28038      0.0    Sc
Sc         0.0  0.71962      0.0    Sc
H      0.00182  0.29302  0.17903     H
H      0.00182  0.70698  0.82097     H
C      0.00294  0.35184  0.42223     C
C      0.00294  0.64824  0.57777     C
H      0.00449  0.40279  0.56315     H
H      0.00449  0.59721  0.43685     H
H      0.00486  0.27903  0.27446     H
H      0.00486  0.72097  0.72554     H
C      0.02154  0.20464  0.37872     C
C      0.02154  0.79544  0.62132     C
H      0.02818  0.15387  0.36349     H
H      0.02818  0.84613  0.63651     H
C      0.03814  0.25944  0.74614     C
C      0.03814  0.74064  0.25386     C
C      0.04012  0.26744  0.80268     C
C      0.04012  0.73264  0.19732     C
C      0.04384  0.24434  0.63094     C
C      0.04384  0.75574  0.36906     C
O      0.04594  0.27899  0.91834     O
O      0.04594  0.72101  0.08166     O
C      0.05514  0.31754  0.60962     C
C      0.05514  0.68254  0.39042     C
C      0.07052  0.31232  0.43255     C
C      0.07052  0.68772  0.56745     C
O      0.07716  0.19331  0.02171     O
O      0.07716  0.80669  0.97829     O
C      0.08024  0.23774  0.41112     C
C      0.08024  0.76234  0.58892     C
O      0.08087  0.36734  0.02491     O
O      0.08087  0.63266  0.97509     O
H      0.09721   0.4955  0.93685     H
H      0.09721   0.5045  0.06315     H
C      0.09944  0.22234   0.7194     C
C      0.09944  0.77774   0.2806     C
C      0.10132  0.23912  0.83329     C
C      0.10132  0.76092  0.16671     C
H      0.10247  0.34468  0.61661     H
H      0.10247  0.65532  0.38339     H
O      0.10282  0.21074  0.66312     O
O      0.10282  0.78934  0.33688     O
C      0.10302  0.24652  0.89424     C
C      0.10302  0.75352  0.10576     C
H      0.12666   0.2093  0.41859     H
H      0.12666   0.7907  0.58141     H
O      0.13266  0.41913  0.47509     O
O      0.13266  0.58087  0.52491     O
C      0.13502  0.34782  0.46476     C
C      0.13502  0.65222  0.53524     C
C      0.14824  0.49714  0.07777     C
C      0.14824  0.50294  0.92223     C
C      0.15222  0.36502  0.03524     C
C      0.15222  0.63502  0.96476     C
H      0.15387  0.02818  0.63651     H
H      0.15387  0.97182  0.36349     H
H      0.15532  0.39753  0.88339     H
H      0.15532  0.60247  0.11661     H
C      0.16094  0.19384  0.74926     C
C      0.16094  0.80624  0.25074     C
O      0.16213  0.22123  0.91871     O
O      0.16213  0.77877  0.08129     O
C      0.16234  0.20284  0.80567     C
C      0.16234  0.79724  0.19433     C
H       0.1678   0.2026  0.26901     H
H       0.1678   0.7974  0.73099     H
C      0.18254  0.44494  0.89042     C
C      0.18254  0.55514  0.10962     C
H      0.18382  0.20569  0.17387     H
H      0.18382  0.79431  0.82613     H
C      0.18772  0.42952  0.06745     C
C      0.18772  0.57052  0.93255     C
O      0.18882  0.30308  0.47964     O
O      0.18882  0.69692  0.52036     O
Sc     0.19318  0.19318      0.0    Sc
Sc     0.19318  0.80682      0.0    Sc
O      0.19331  0.07716  0.97829     O
O      0.19331  0.92284  0.02171     O
C      0.19384  0.16094  0.25074     C
C      0.19384  0.83914  0.74926     C
O      0.19692  0.31118  0.02036     O
O      0.19692  0.68882  0.97964     O
H       0.2026   0.1678  0.73099     H
H       0.2026   0.8322  0.26901     H
C      0.20284  0.16234  0.19433     C
C      0.20284  0.83774  0.80567     C
C      0.20464  0.02154  0.62132     C
C      0.20464  0.97854  0.37872     C
H      0.20569  0.18382  0.82613     H
H      0.20569  0.81618  0.17387     H
H      0.20698  0.49818  0.32097     H
H      0.20698  0.50182  0.67903     H
H       0.2093  0.12666  0.58141     H
H       0.2093  0.87334  0.41859     H
O      0.21074  0.10282  0.33688     O
O      0.21074  0.89722  0.66312     O
Sc     0.21962      0.5      0.5    Sc
H      0.22097  0.49514  0.22554     H
H      0.22097  0.50486  0.77446     H
O      0.22101  0.45406  0.58166     O
O      0.22101  0.54594  0.41834     O
O      0.22123  0.16213  0.08129     O
O      0.22123  0.83787  0.91871     O
C      0.22234  0.09944   0.2806     C
C      0.22234  0.90064   0.7194     C
C      0.23264  0.45992  0.69732     C
C      0.23264  0.54012  0.30268     C
C      0.23774  0.08024  0.58892     C
C      0.23774  0.91984  0.41112     C
C      0.23912  0.10132  0.16671     C
C      0.23912  0.89872  0.83329     C
C      0.24064  0.46194  0.75386     C
C      0.24064  0.53814  0.24614     C
C      0.24434  0.04384  0.36906     C
C      0.24434  0.95624  0.63094     C
C      0.24652  0.10302  0.10576     C
C      0.24652  0.89702  0.89424     C
C      0.25352  0.39702  0.60576     C
C      0.25352  0.60302  0.39424     C
C      0.25574  0.45624  0.86906     C
C      0.25574  0.54384  0.13094     C
C      0.25944  0.03814  0.25386     C
C      0.25944  0.96194  0.74614     C
C      0.26092  0.39872 0.66666667     C
C      0.26092  0.60132  0.33329     C
C      0.26234  0.41984  0.08892     C
C      0.26234  0.58024  0.91112     C
C      0.26744  0.04012  0.19732     C
C      0.26744  0.95992  0.80268     C
C      0.27774  0.40064   0.7806     C
C      0.27774  0.59944   0.2194     C
O      0.27877  0.33787  0.58129     O
O      0.27877  0.66213  0.41871     O
O      0.27899  0.04594  0.08166     O
O      0.27899  0.95406  0.91834     O
H      0.27903  0.00486  0.72554     H
H      0.27903  0.99514  0.27446     H
Sc     0.28038      0.0      0.0    Sc
O      0.28934  0.39722  0.83688     O
O      0.28934  0.60282  0.16312     O
H       0.2907  0.37334  0.08141     H
H       0.2907  0.62666  0.91859     H
H      0.29302  0.00182  0.82097     H
H      0.29302  0.99818  0.17903     H
H      0.29431  0.31618  0.32613     H
H      0.29431  0.68382  0.67387     H
C      0.29544  0.47854  0.12132     C
C      0.29544  0.52154  0.87872     C
C      0.29724  0.33774  0.69433     C
C      0.29724  0.66234  0.30567     C
H       0.2974   0.3322  0.23099     H
H       0.2974   0.6678  0.76901     H
O      0.30308  0.18882  0.52036     O
O      0.30308  0.81118  0.47964     O
C      0.30624  0.33914  0.75074     C
C      0.30624  0.66094  0.24926     C
O      0.30669  0.42284  0.47829     O
O      0.30669  0.57716  0.52171     O
Sc     0.30682  0.30682      0.5    Sc
Sc     0.30682  0.69318      0.5    Sc
O      0.31118  0.19692  0.97964     O
O      0.31118  0.80308  0.02036     O
C      0.31232  0.07052  0.56745     C
C      0.31232  0.92952  0.43255     C
H      0.31618  0.29431  0.67387     H
H      0.31618  0.70569  0.32613     H
C      0.31754  0.05514  0.39042     C
C      0.31754  0.94494  0.60962     C
H       0.3322   0.2974  0.76901     H
H       0.3322   0.7026  0.23099     H
C      0.33774  0.29724  0.30567     C
C      0.33774  0.70284  0.69433     C
O      0.33787  0.27877  0.41871     O
O      0.33787  0.72123  0.58129     O
C      0.33914  0.30624  0.24926     C
C      0.33914  0.69384  0.75074     C
H      0.34468  0.10247  0.38339     H
H      0.34468  0.89753  0.61661     H
H      0.34614  0.47182  0.13651     H
H      0.34614  0.52818  0.86349     H
C      0.34782  0.13502  0.53524     C
C      0.34782  0.86502  0.46476     C
C      0.35184  0.00294  0.57777     C
C      0.35184  0.99714  0.42223     C
C      0.36502  0.15222  0.96476     C
C      0.36502  0.84782  0.03524     C
O      0.36734  0.08087  0.97509     O
O      0.36734  0.91913  0.02491     O
H      0.37334   0.2907  0.91859     H
H      0.37334   0.7093  0.08141     H
C      0.39702  0.25352  0.39424     C
C      0.39702  0.74652  0.60576     C
O      0.39722  0.28934  0.16312     O
O      0.39722  0.71074  0.83688     O
H      0.39753  0.15532  0.11661     H
H      0.39753  0.84468  0.88339     H
C      0.39872  0.26092  0.33329     C
C      0.39872  0.73912 0.66666667     C
C      0.40064  0.27774   0.2194     C
C      0.40064  0.72234   0.7806     C
H      0.40279  0.00449  0.43685     H
H      0.40279  0.99551  0.56315     H
O      0.41913  0.13266  0.52491     O
O      0.41913  0.86734  0.47509     O
C      0.41984  0.26234  0.91112     C
C      0.41984  0.73774  0.08892     C
O      0.42284  0.30669  0.52171     O
O      0.42284  0.69331  0.47829     O
C      0.42952  0.18772  0.93255     C
C      0.42952  0.81232  0.06745     C
C      0.44494  0.18254  0.10962     C
C      0.44494  0.81754  0.89042     C
O      0.45406  0.22101  0.41834     O
O      0.45406  0.77899  0.58166     O
C      0.45624  0.25574  0.13094     C
C      0.45624  0.74434  0.86906     C
C      0.45992  0.23264  0.30268     C
C      0.45992  0.76744  0.69732     C
C      0.46194  0.24064  0.24614     C
C      0.46194  0.75944  0.75386     C
H      0.47182  0.34614  0.86349     H
H      0.47182  0.65387  0.13651     H
C      0.47854  0.29544  0.87872     C
C      0.47854  0.70464  0.12132     C
H      0.49514  0.22097  0.77446     H
H      0.49514  0.77903  0.22554     H
H       0.4955  0.09721  0.06315     H
H       0.4955  0.90279  0.93685     H
C      0.49714  0.14824  0.92223     C
C      0.49714  0.85184  0.07777     C
H      0.49818  0.20698  0.67903     H
H      0.49818  0.79302  0.32097     H
Sc         0.5  0.21962      0.5    Sc
Sc         0.5  0.78038      0.5    Sc
H      0.50182  0.20698  0.32097     H
H      0.50182  0.79302  0.67903     H
C      0.50294  0.14824  0.07777     C
C      0.50294  0.85184  0.92223     C
H       0.5045  0.09721  0.93685     H
H       0.5045  0.90279  0.06315     H
H      0.50486  0.22097  0.22554     H
H      0.50486  0.77903  0.77446     H
C      0.52154  0.29544  0.12132     C
C      0.52154  0.70464  0.87872     C
H      0.52818  0.34614  0.13651     H
H      0.52818  0.65387  0.86349     H
C      0.53814  0.24064  0.75386     C
C      0.53814  0.75944  0.24614     C
C      0.54012  0.23264  0.69732     C
C      0.54012  0.76744  0.30268     C
C      0.54384  0.25574  0.86906     C
C      0.54384  0.74434  0.13094     C
O      0.54594  0.22101  0.58166     O
O      0.54594  0.77899  0.41834     O
C      0.55514  0.18254  0.89042     C
C      0.55514  0.81754  0.10962     C
C      0.57052  0.18772  0.06745     C
C      0.57052  0.81232  0.93255     C
O      0.57716  0.30669  0.47829     O
O      0.57716  0.69331  0.52171     O
C      0.58024  0.26234  0.08892     C
C      0.58024  0.73774  0.91112     C
O      0.58087  0.13266  0.47509     O
O      0.58087  0.86734  0.52491     O
H      0.59721  0.00449  0.56315     H
H      0.59721  0.99551  0.43685     H
C      0.59944  0.27774   0.7806     C
C      0.59944  0.72234   0.2194     C
C      0.60132  0.26092 0.66666667     C
C      0.60132  0.73912  0.33329     C
H      0.60247  0.15532  0.88339     H
H      0.60247  0.84468  0.11661     H
O      0.60282  0.28934  0.83688     O
O      0.60282  0.71074  0.16312     O
C      0.60302  0.25352  0.60576     C
C      0.60302  0.74652  0.39424     C
H      0.62666   0.2907  0.08141     H
H      0.62666   0.7093  0.91859     H
O      0.63266  0.08087  0.02491     O
O      0.63266  0.91913  0.97509     O
C      0.63502  0.15222  0.03524     C
C      0.63502  0.84782  0.96476     C
C      0.64824  0.00294  0.42223     C
C      0.64824  0.99714  0.57777     C
C      0.65222  0.13502  0.46476     C
C      0.65222  0.86502  0.53524     C
H      0.65387  0.47182  0.86349     H
H      0.65387  0.52818  0.13651     H
H      0.65532  0.10247  0.61661     H
H      0.65532  0.89753  0.38339     H
C      0.66094  0.30624  0.75074     C
C      0.66094  0.69384  0.24926     C
O      0.66213  0.27877  0.58129     O
O      0.66213  0.72123  0.41871     O
C      0.66234  0.29724  0.69433     C
C      0.66234  0.70284  0.30567     C
H       0.6678   0.2974  0.23099     H
H       0.6678   0.7026  0.76901     H
C      0.68254  0.05514  0.60962     C
C      0.68254  0.94494  0.39042     C
H      0.68382  0.29431  0.32613     H
H      0.68382  0.70569  0.67387     H
C      0.68772  0.07052  0.43255     C
C      0.68772  0.92952  0.56745     C
O      0.68882  0.19692  0.02036     O
O      0.68882  0.80308  0.97964     O
Sc     0.69318  0.30682      0.5    Sc
Sc     0.69318  0.69318      0.5    Sc
O      0.69331  0.42284  0.52171     O
O      0.69331  0.57716  0.47829     O
C      0.69384  0.33914  0.24926     C
C      0.69384  0.66094  0.75074     C
O      0.69692  0.18882  0.47964     O
O      0.69692  0.81118  0.52036     O
H       0.7026   0.3322  0.76901     H
H       0.7026   0.6678  0.23099     H
C      0.70284  0.33774  0.30567     C
C      0.70284  0.66234  0.69433     C
C      0.70464  0.47854  0.87872     C
C      0.70464  0.52154  0.12132     C
H      0.70569  0.31618  0.67387     H
H      0.70569  0.68382  0.32613     H
H      0.70698  0.00182  0.17903     H
H      0.70698  0.99818  0.82097     H
H       0.7093  0.37334  0.91859     H
H       0.7093  0.62666  0.08141     H
O      0.71074  0.39722  0.16312     O
O      0.71074  0.60282  0.83688     O
Sc     0.71962      0.0      0.0    Sc
H      0.72097  0.00486  0.27446     H
H      0.72097  0.99514  0.72554     H
O      0.72101  0.04594  0.91834     O
O      0.72101  0.95406  0.08166     O
O      0.72123  0.33787  0.41871     O
O      0.72123  0.66213  0.58129     O
C      0.72234  0.40064   0.2194     C
C      0.72234  0.59944   0.7806     C
C      0.73264  0.04012  0.80268     C
C      0.73264  0.95992  0.19732     C
C      0.73774  0.41984  0.91112     C
C      0.73774  0.58024  0.08892     C
C      0.73912  0.39872  0.33329     C
C      0.73912  0.60132 0.66666667     C
C      0.74064  0.03814  0.74614     C
C      0.74064  0.96194  0.25386     C
C      0.74434  0.45624  0.13094     C
C      0.74434  0.54384  0.86906     C
C      0.74652  0.39702  0.39424     C
C      0.74652  0.60302  0.60576     C
C      0.75352  0.10302  0.89424     C
C      0.75352  0.89702  0.10576     C
C      0.75574  0.04384  0.63094     C
C      0.75574  0.95624  0.36906     C
C      0.75944  0.46194  0.24614     C
C      0.75944  0.53814  0.75386     C
C      0.76092  0.10132  0.83329     C
C      0.76092  0.89872  0.16671     C
C      0.76234  0.08024  0.41112     C
C      0.76234  0.91984  0.58892     C
C      0.76744  0.45992  0.30268     C
C      0.76744  0.54012  0.69732     C
C      0.77774  0.09944   0.7194     C
C      0.77774  0.90064   0.2806     C
O      0.77877  0.16213  0.91871     O
O      0.77877  0.83787  0.08129     O
O      0.77899  0.45406  0.41834     O
O      0.77899  0.54594  0.58166     O
H      0.77903  0.49514  0.77446     H
H      0.77903  0.50486  0.22554     H
Sc     0.78038      0.5      0.5    Sc
O      0.78934  0.10282  0.66312     O
O      0.78934  0.89722  0.33688     O
H       0.7907  0.12666  0.41859     H
H       0.7907  0.87334  0.58141     H
H      0.79302  0.49818  0.67903     H
H      0.79302  0.50182  0.32097     H
H      0.79431  0.18382  0.17387     H
H      0.79431  0.81618  0.82613     H
C      0.79544  0.02154  0.37872     C
C      0.79544  0.97854  0.62132     C
C      0.79724  0.16234  0.80567     C
C      0.79724  0.83774  0.19433     C
H       0.7974   0.1678  0.26901     H
H       0.7974   0.8322  0.73099     H
O      0.80308  0.31118  0.97964     O
O      0.80308  0.68882  0.02036     O
C      0.80624  0.16094  0.74926     C
C      0.80624  0.83914  0.25074     C
O      0.80669  0.07716  0.02171     O
O      0.80669  0.92284  0.97829     O
Sc     0.80682  0.19318      0.0    Sc
Sc     0.80682  0.80682      0.0    Sc
O      0.81118  0.30308  0.52036     O
O      0.81118  0.69692  0.47964     O
C      0.81232  0.42952  0.93255     C
C      0.81232  0.57052  0.06745     C
H      0.81618  0.20569  0.82613     H
H      0.81618  0.79431  0.17387     H
C      0.81754  0.44494  0.10962     C
C      0.81754  0.55514  0.89042     C
H       0.8322   0.2026  0.73099     H
H       0.8322   0.7974  0.26901     H
C      0.83774  0.20284  0.19433     C
C      0.83774  0.79724  0.80567     C
O      0.83787  0.22123  0.08129     O
O      0.83787  0.77877  0.91871     O
C      0.83914  0.19384  0.25074     C
C      0.83914  0.80624  0.74926     C
H      0.84468  0.39753  0.11661     H
H      0.84468  0.60247  0.88339     H
H      0.84613  0.02818  0.36349     H
H      0.84613  0.97182  0.63651     H
C      0.84782  0.36502  0.96476     C
C      0.84782  0.63502  0.03524     C
C      0.85184  0.49714  0.92223     C
C      0.85184  0.50294  0.07777     C
C      0.86502  0.34782  0.53524     C
C      0.86502  0.65222  0.46476     C
O      0.86734  0.41913  0.52491     O
O      0.86734  0.58087  0.47509     O
H      0.87334   0.2093  0.58141     H
H      0.87334   0.7907  0.41859     H
C      0.89702  0.24652  0.10576     C
C      0.89702  0.75352  0.89424     C
O      0.89722  0.21074  0.33688     O
O      0.89722  0.78934  0.66312     O
H      0.89753  0.34468  0.38339     H
H      0.89753  0.65532  0.61661     H
C      0.89872  0.23912  0.16671     C
C      0.89872  0.76092  0.83329     C
C      0.90064  0.22234   0.2806     C
C      0.90064  0.77774   0.7194     C
H      0.90279   0.4955  0.06315     H
H      0.90279   0.5045  0.93685     H
O      0.91913  0.36734  0.97509     O
O      0.91913  0.63266  0.02491     O
C      0.91984  0.23774  0.58892     C
C      0.91984  0.76234  0.41112     C
O      0.92284  0.19331  0.97829     O
O      0.92284  0.80669  0.02171     O
C      0.92952  0.31232  0.56745     C
C      0.92952  0.68772  0.43255     C
C      0.94494  0.31754  0.39042     C
C      0.94494  0.68254  0.60962     C
O      0.95406  0.27899  0.08166     O
O      0.95406  0.72101  0.91834     O
C      0.95624  0.24434  0.36906     C
C      0.95624  0.75574  0.63094     C
C      0.95992  0.26744  0.19732     C
C      0.95992  0.73264  0.80268     C
C      0.96194  0.25944  0.25386     C
C      0.96194  0.74064  0.74614     C
H      0.97182  0.15387  0.63651     H
H      0.97182  0.84613  0.36349     H
C      0.97854  0.20464  0.62132     C
C      0.97854  0.79544  0.37872     C
H      0.99514  0.27903  0.72554     H
H      0.99514  0.72097  0.27446     H
H      0.99551  0.40279  0.43685     H
H      0.99551  0.59721  0.56315     H
C      0.99714  0.35184  0.57777     C
C      0.99714  0.64824  0.42223     C
H      0.99818  0.29302  0.82097     H
H      0.99818  0.70698  0.17903     H
