data_I
_chemical_name_common  '/home/zhangsd/repos/MofS-CGCNN/CGCNN_MT/data/WS24v2_external_test/clean_cifs/val_17'
_cell_length_a 30.34500
_cell_length_b 10.00880
_cell_length_c 22.75080
_cell_angle_alpha 90.00000
_cell_angle_beta  124.31300
_cell_angle_gamma 90.00000
_space_group_name_H-M_alt      'P 1'


loop_
_space_group_symop_operation_xyz
  'x, y, z' 

loop_
_atom_site_label
_atom_site_fract_x
_atom_site_fract_y
_atom_site_fract_z
_atom_site_type_symbol
H       0.0166   0.2361   0.3642     H
H       0.0166   0.7639   0.8642     H
C      0.02462  0.03714  0.37312     C
C      0.02462  0.96294  0.87312     C
N      0.02469  0.01374  0.19432     N
N      0.02469  0.98634  0.69432     N
N      0.03457  0.10134  0.71013     N
N      0.03457  0.89874  0.21013     N
C      0.03864  0.16705  0.39342     C
C      0.03864  0.83305  0.89342     C
H       0.0491   0.1534   0.9045     H
H       0.0491   0.8466   0.4045     H
C      0.05778  0.06424  0.91732     C
C      0.05778  0.93584  0.41732     C
H       0.0716   0.3246    0.769     H
H       0.0716   0.6754    0.269     H
C      0.08429  0.12614  0.77752     C
C      0.08429  0.87394  0.27752     C
C      0.08588  0.19454  0.45772     C
C      0.08588  0.80554  0.95772     C
C      0.09532  0.25754  0.79772     C
C      0.09532  0.74254  0.29772     C
H       0.0955   0.2832   0.4709     H
H       0.0955   0.7168   0.9709     H
C      0.10419  0.02904  0.98112     C
C      0.10419  0.97104  0.48112     C
H       0.1133   0.0622   0.3084     H
H       0.1133   0.9378   0.8084     H
N      0.11829  0.09804  0.50159     N
N      0.11829  0.90204  0.00159     N
C      0.12023  0.02754  0.82095     C
C      0.12023  0.97254  0.32095     C
H       0.1267   0.0966   0.0111     H
H       0.1267   0.9034   0.5111     H
H       0.1327   0.0883   0.6388     H
H       0.1327   0.9117   0.1388     H
H       0.1385   0.2325   0.6442     H
H       0.1385   0.7675   0.1442     H
O      0.14251  0.36824   0.0182     O
O      0.14251  0.63184   0.5182     O
C      0.14255  0.28814  0.86187     C
C      0.14255  0.71194  0.36187     C
H         0.15   0.3772   0.8757     H
H         0.15   0.6228   0.3757     H
N      0.15647  0.15522   0.6538     N
N      0.15647  0.84482   0.1538     N
C      0.16669  0.06744  0.88363     C
C      0.16669  0.93264  0.38363     C
N      0.17789  0.19534  0.90465     N
N      0.17789  0.80474  0.40465     N
O      0.18457  0.35752  0.57907     O
O      0.18457  0.64252  0.07907     O
C       0.1896  0.38804  0.04306     C
C       0.1896  0.61204  0.54306     C
Ni     0.19061  0.14987  0.59365    Ni
Ni     0.19061  0.85013  0.09365    Ni
H       0.1914   0.0023   0.9127     H
H       0.1914   0.9977   0.4127     H
C      0.19339  0.14414  0.72926     C
C      0.19339  0.85594  0.22926     C
H       0.1984   0.0575   0.2322     H
H       0.1984   0.9425   0.7322     H
H       0.2015   0.3415    0.751     H
H       0.2015   0.6585    0.251     H
O       0.2093  0.41242  0.00705     O
O       0.2093  0.58762  0.50705     O
C      0.21183  0.01884  0.76029     C
C      0.21183  0.98124  0.26029     C
C       0.2131  0.25744  0.77151     C
C       0.2131  0.74264  0.27151     C
O       0.2189  0.03362  0.13401     O
O       0.2189  0.96642  0.63401     O
O      0.22356  0.13832  0.53386     O
O      0.22356  0.86172  0.03386     O
O      0.22867  0.12642  0.05326     O
O      0.22867  0.87362  0.55326     O
C      0.22972  0.37084  0.63736     C
C      0.22972  0.62924  0.13736     C
C      0.23003  0.37954   0.1234     C
C      0.23003  0.62054   0.6234     C
C       0.2312  0.12974  0.11075     C
C       0.2312  0.87034  0.61075     C
O      0.24359  0.23152  0.32855     O
O      0.24359  0.76852  0.82855     O
C      0.24964  0.25442  0.15505     C
C      0.24964  0.74562  0.65505     C
C      0.24987  0.49314  0.16694     C
C      0.24987  0.50694  0.66694     C
Ni        0.25     0.25      0.0    Ni
Ni        0.25     0.75      0.5    Ni
C      0.25013  0.00694  0.83306     C
C      0.25013  0.99314  0.33306     C
C      0.25036  0.24562  0.84495     C
C      0.25036  0.75442  0.34495     C
O      0.25643  0.26852  0.67145     O
O      0.25643  0.73152  0.17145     O
C       0.2688  0.37034  0.88925     C
C       0.2688  0.62974  0.38925     C
C      0.26997  0.12054   0.8766     C
C      0.26997  0.87954   0.3766     C
C      0.27028  0.12924  0.36264     C
C      0.27028  0.87084  0.86264     C
O      0.27135  0.37362  0.94674     O
O      0.27135  0.62642  0.44674     O
O      0.27644  0.36172  0.46614     O
O      0.27644  0.63832  0.96614     O
O       0.2811  0.46642  0.86599     O
O       0.2811  0.53362  0.36599     O
C       0.2869  0.24264  0.22849     C
C       0.2869  0.75744  0.72849     C
C      0.28817  0.48124  0.23971     C
C      0.28817  0.51884  0.73971     C
O      0.29072  0.08762  0.99295     O
O      0.29072  0.91242  0.49295     O
H       0.2985   0.1585    0.249     H
H       0.2985   0.8415    0.749     H
H       0.3016   0.4425   0.7678     H
H       0.3016   0.5575   0.2678     H
C      0.30661  0.35594  0.27074     C
C      0.30661  0.64414  0.77074     C
H       0.3086   0.4977   0.0873     H
H       0.3086   0.5023   0.5873     H
Ni     0.30939  0.35013  0.40635    Ni
Ni     0.30939  0.64987  0.90635    Ni
C       0.3104  0.11204  0.95694     C
C       0.3104  0.88804  0.45694     C
O      0.31543  0.14252  0.42093     O
O      0.31543  0.85752  0.92093     O
N      0.32211  0.30474  0.09535     N
N      0.32211  0.69534  0.59535     N
C     0.33333333  0.43264  0.11637     C
C     0.33333333  0.56744  0.61637     C
N      0.34353  0.34482   0.3462     N
N      0.34353  0.65522   0.8462     N
H         0.35   0.1228   0.1243     H
H         0.35   0.8772   0.6243     H
C      0.35745  0.21194  0.13813     C
C      0.35745  0.78814  0.63813     C
O      0.35749  0.13184   0.9818     O
O      0.35749  0.86824   0.4818     O
H       0.3615   0.2675   0.3558     H
H       0.3615   0.7325   0.8558     H
H       0.3673   0.4117   0.3612     H
H       0.3673   0.5883   0.8612     H
H       0.3733   0.4034   0.9889     H
H       0.3733   0.5966   0.4889     H
C      0.37977  0.47254  0.17905     C
C      0.37977  0.52754  0.67905     C
N      0.38171  0.40204  0.49841     N
N      0.38171  0.59804  0.99841     N
H       0.3867   0.4378   0.6916     H
H       0.3867   0.5622   0.1916     H
C      0.39581  0.47104  0.01892     C
C      0.39581  0.52904  0.51892     C
H       0.4045   0.2168   0.5291     H
H       0.4045   0.7832   0.0291     H
C      0.40468  0.24254  0.20232     C
C      0.40468  0.75754  0.70232     C
C      0.41412  0.30554  0.54232     C
C      0.41412  0.69454  0.04232     C
C      0.41571  0.37394  0.22252     C
C      0.41571  0.62614  0.72252     C
H       0.4284   0.1754    0.231     H
H       0.4284   0.8246    0.731     H
C      0.44222  0.43584  0.08272     C
C      0.44222  0.56424  0.58272     C
H       0.4509   0.3466   0.0955     H
H       0.4509   0.6534   0.5955     H
C      0.46136  0.33305  0.60662     C
C      0.46136  0.66705  0.10662     C
N      0.46543  0.39874  0.28987     N
N      0.46543  0.60134  0.78987     N
N      0.47531  0.48634  0.80572     N
N      0.47531  0.51374  0.30572     N
C      0.47538  0.46294  0.62692     C
C      0.47538  0.53714  0.12692     C
H       0.4834   0.2639   0.6358     H
H       0.4834   0.7361   0.1358     H
H       0.5166   0.2639   0.8642     H
H       0.5166   0.7361   0.3642     H
C      0.52462  0.46294  0.87312     C
C      0.52462  0.53714  0.37312     C
N      0.52469  0.48634  0.69432     N
N      0.52469  0.51374  0.19432     N
N      0.53457  0.39874  0.21013     N
N      0.53457  0.60134  0.71013     N
C      0.53864  0.33305  0.89342     C
C      0.53864  0.66705  0.39342     C
H       0.5491   0.3466   0.4045     H
H       0.5491   0.6534   0.9045     H
C      0.55778  0.43584  0.41732     C
C      0.55778  0.56424  0.91732     C
H       0.5716   0.1754    0.269     H
H       0.5716   0.8246    0.769     H
C      0.58429  0.37394  0.27752     C
C      0.58429  0.62614  0.77752     C
C      0.58588  0.30554  0.95772     C
C      0.58588  0.69454  0.45772     C
C      0.59532  0.24254  0.29772     C
C      0.59532  0.75754  0.79772     C
H       0.5955   0.2168   0.9709     H
H       0.5955   0.7832   0.4709     H
C      0.60419  0.47104  0.48112     C
C      0.60419  0.52904  0.98112     C
H       0.6133   0.4378   0.8084     H
H       0.6133   0.5622   0.3084     H
N      0.61829  0.40204  0.00159     N
N      0.61829  0.59804  0.50159     N
C      0.62023  0.47254  0.32095     C
C      0.62023  0.52754  0.82095     C
H       0.6267   0.4034   0.5111     H
H       0.6267   0.5966   0.0111     H
H       0.6327   0.4117   0.1388     H
H       0.6327   0.5883   0.6388     H
H       0.6385   0.2675   0.1442     H
H       0.6385   0.7325   0.6442     H
O      0.64251  0.13184   0.5182     O
O      0.64251  0.86824   0.0182     O
C      0.64255  0.21194  0.36187     C
C      0.64255  0.78814  0.86187     C
H         0.65   0.1228   0.3757     H
H         0.65   0.8772   0.8757     H
N      0.65647  0.34482   0.1538     N
N      0.65647  0.65522   0.6538     N
C     0.66666667  0.43264  0.38363     C
C     0.66666667  0.56744  0.88363     C
N      0.67789  0.30474  0.40465     N
N      0.67789  0.69534  0.90465     N
O      0.68457  0.14252  0.07907     O
O      0.68457  0.85752  0.57907     O
C       0.6896  0.11204  0.54306     C
C       0.6896  0.88804  0.04306     C
Ni     0.69061  0.35013  0.09365    Ni
Ni     0.69061  0.64987  0.59365    Ni
H       0.6914   0.4977   0.4127     H
H       0.6914   0.5023   0.9127     H
C      0.69339  0.35594  0.22926     C
C      0.69339  0.64414  0.72926     C
H       0.6984   0.4425   0.7322     H
H       0.6984   0.5575   0.2322     H
H       0.7015   0.1585    0.251     H
H       0.7015   0.8415    0.751     H
O       0.7093  0.08762  0.50705     O
O       0.7093  0.91242  0.00705     O
C      0.71183  0.48124  0.26029     C
C      0.71183  0.51884  0.76029     C
C       0.7131  0.24264  0.27151     C
C       0.7131  0.75744  0.77151     C
O       0.7189  0.46642  0.63401     O
O       0.7189  0.53362  0.13401     O
O      0.72356  0.36172  0.03386     O
O      0.72356  0.63832  0.53386     O
O      0.72867  0.37362  0.55326     O
O      0.72867  0.62642  0.05326     O
C      0.72972  0.12924  0.13736     C
C      0.72972  0.87084  0.63736     C
C      0.73003  0.12054   0.6234     C
C      0.73003  0.87954   0.1234     C
C       0.7312  0.37034  0.61075     C
C       0.7312  0.62974  0.11075     C
O      0.74359  0.26852  0.82855     O
O      0.74359  0.73152  0.32855     O
C      0.74964  0.24562  0.65505     C
C      0.74964  0.75442  0.15505     C
C      0.74987  0.00694  0.66694     C
C      0.74987  0.99314  0.16694     C
Ni        0.75     0.25      0.5    Ni
Ni        0.75     0.75      0.0    Ni
C      0.75013  0.49314  0.33306     C
C      0.75013  0.50694  0.83306     C
C      0.75036  0.25442  0.34495     C
C      0.75036  0.74562  0.84495     C
O      0.75643  0.23152  0.17145     O
O      0.75643  0.76852  0.67145     O
C       0.7688  0.12974  0.38925     C
C       0.7688  0.87034  0.88925     C
C      0.76997  0.37954   0.3766     C
C      0.76997  0.62054   0.8766     C
C      0.77028  0.37084  0.86264     C
C      0.77028  0.62924  0.36264     C
O      0.77135  0.12642  0.44674     O
O      0.77135  0.87362  0.94674     O
O      0.77644  0.13832  0.96614     O
O      0.77644  0.86172  0.46614     O
O       0.7811  0.03362  0.36599     O
O       0.7811  0.96642  0.86599     O
C       0.7869  0.25744  0.72849     C
C       0.7869  0.74264  0.22849     C
C      0.78817  0.01884  0.73971     C
C      0.78817  0.98124  0.23971     C
O      0.79072  0.41242  0.49295     O
O      0.79072  0.58762  0.99295     O
H       0.7985   0.3415    0.749     H
H       0.7985   0.6585    0.249     H
H       0.8016   0.0575   0.2678     H
H       0.8016   0.9425   0.7678     H
C      0.80661  0.14414  0.77074     C
C      0.80661  0.85594  0.27074     C
H       0.8086   0.0023   0.5873     H
H       0.8086   0.9977   0.0873     H
Ni     0.80939  0.14987  0.90635    Ni
Ni     0.80939  0.85013  0.40635    Ni
C       0.8104  0.38804  0.45694     C
C       0.8104  0.61204  0.95694     C
O      0.81543  0.35752  0.92093     O
O      0.81543  0.64252  0.42093     O
N      0.82211  0.19534  0.59535     N
N      0.82211  0.80474  0.09535     N
C      0.83331  0.06744  0.61637     C
C      0.83331  0.93264  0.11637     C
N      0.84353  0.15522   0.8462     N
N      0.84353  0.84482   0.3462     N
H         0.85   0.3772   0.6243     H
H         0.85   0.6228   0.1243     H
C      0.85745  0.28814  0.63813     C
C      0.85745  0.71194  0.13813     C
O      0.85749  0.36824   0.4818     O
O      0.85749  0.63184   0.9818     O
H       0.8615   0.2325   0.8558     H
H       0.8615   0.7675   0.3558     H
H       0.8673   0.0883   0.8612     H
H       0.8673   0.9117   0.3612     H
H       0.8733   0.0966   0.4889     H
H       0.8733   0.9034   0.9889     H
C      0.87977  0.02754  0.67905     C
C      0.87977  0.97254  0.17905     C
N      0.88171  0.09804  0.99841     N
N      0.88171  0.90204  0.49841     N
H       0.8867   0.0622   0.1916     H
H       0.8867   0.9378   0.6916     H
C      0.89581  0.02904  0.51892     C
C      0.89581  0.97104  0.01892     C
H       0.9045   0.2832   0.0291     H
H       0.9045   0.7168   0.5291     H
C      0.90468  0.25754  0.70232     C
C      0.90468  0.74254  0.20232     C
C      0.91412  0.19454  0.04232     C
C      0.91412  0.80554  0.54232     C
C      0.91571  0.12614  0.72252     C
C      0.91571  0.87394  0.22252     C
H       0.9284   0.3246    0.731     H
H       0.9284   0.6754    0.231     H
C      0.94222  0.06424  0.58272     C
C      0.94222  0.93584  0.08272     C
H       0.9509   0.1534   0.5955     H
H       0.9509   0.8466   0.0955     H
C      0.96136  0.16705  0.10662     C
C      0.96136  0.83305  0.60662     C
N      0.96543  0.10134  0.78987     N
N      0.96543  0.89874  0.28987     N
N      0.97531  0.01374  0.30572     N
N      0.97531  0.98634  0.80572     N
C      0.97538  0.03714  0.12692     C
C      0.97538  0.96294  0.62692     C
H       0.9834   0.2361   0.1358     H
H       0.9834   0.7639   0.6358     H
