data_I
_chemical_name_common  '/home/zhangsd/repos/MofS-CGCNN/CGCNN_MT/data/WS24v2_external_test/clean_cifs/val_26'
_cell_length_a  7.01089
_cell_length_b 18.51220
_cell_length_c  9.61591
_cell_angle_alpha 90.00000
_cell_angle_beta  101.01100
_cell_angle_gamma 90.00000
_space_group_name_H-M_alt      'P 1'


loop_
_space_group_symop_operation_xyz
  'x, y, z' 

loop_
_atom_site_label
_atom_site_fract_x
_atom_site_fract_y
_atom_site_fract_z
_atom_site_type_symbol
C       0.0092     0.75  0.64862     C
N      0.03882     0.25  0.49051     N
C      0.07701  0.56995  0.00141     C
C      0.07701  0.93005  0.00141     C
O       0.0837  0.62041   0.3522     O
O       0.0837  0.87961   0.3522     O
O       0.1118  0.67388  0.14332     O
O       0.1122  0.82612  0.14332     O
C      0.11631  0.05905  0.98481     C
C      0.11632  0.44105  0.98481     C
H      0.13613     0.75  0.69839     H
N       0.1412     0.25  0.29201     N
C       0.1463  0.85529   0.0352     C
Eu     0.16071     0.75  0.31802    Eu
C      0.19051  0.51085  0.98691     C
C      0.19051  0.98915  0.98691     C
C       0.1973  0.64161  0.00322     C
O      0.20212     0.25  0.76001     O
O       0.2238  0.82248  0.11322     O
O       0.2242  0.67768  0.11322     O
O      0.22542  0.17685  0.05021     O
O      0.22542  0.32325  0.05021     O
C       0.2372     0.25  0.52372     C
O       0.2453  0.82841   0.9572     O
C      0.25001  0.37737  0.97901     C
C      0.25002  0.12277  0.97901     C
O       0.2678  0.65988  0.90092     O
C       0.3102     0.25  0.40142     C
H      0.31921  0.51758  0.97833     H
H      0.31921  0.98242  0.97833     H
C       0.3232     0.25  0.67612     C
O       0.3628  0.79251  0.53092     O
O      0.38071  0.12094  0.91089     O
O      0.38071  0.37914  0.91089     O
O      0.47818     0.75  0.75941     O
Eu     0.48143     0.25   0.9883    Eu
C       0.4957  0.77551   0.6322     C
O      0.49839     0.75  0.27511     O
O      0.50161     0.25  0.72491     O
C       0.5043  0.22451   0.3682     C
Eu     0.51855     0.75  0.01172    Eu
O      0.52182     0.25  0.24061     O
O      0.61929  0.62094  0.08929     O
O      0.61929  0.87914  0.08929     O
O       0.6372  0.20751  0.46911     O
C       0.6768     0.75  0.32391     C
H      0.68079  0.01758  0.02167     H
H      0.68079  0.48242  0.02167     H
C       0.6898     0.75  0.59862     C
O       0.7322  0.15988  0.09912     O
C      0.74999  0.62277  0.02101     C
C      0.75001  0.87723  0.02101     C
O       0.7547  0.32859   0.0432     O
C       0.7628     0.75  0.47631     C
O      0.77458  0.67685  0.94981     O
O      0.77458  0.82325  0.94981     O
O      0.79788     0.75  0.24001     O
C       0.8033  0.14161  0.99682     C
C      0.80949  0.48925  0.01311     C
C      0.80951  0.01085  0.01311     C
Eu     0.83929     0.25    0.682    Eu
C       0.8537  0.35531   0.9652     C
N       0.8588     0.75  0.70801     N
H      0.86387     0.25  0.30162     H
C      0.88368  0.55905  0.01521     C
C      0.88372  0.94095  0.01521     C
O       0.8878  0.32628  0.85672     O
O       0.8882  0.17388  0.85672     O
O       0.9163  0.12041   0.6482     O
O       0.9163  0.37961   0.6482     O
C      0.92299  0.43015  0.99861     C
C      0.92301  0.06995  0.99861     C
N      0.96118     0.75  0.50951     N
C       0.9908     0.25  0.35142     C
