data_I
_chemical_name_common  '/home/zhangsd/repos/MofS-CGCNN/CGCNN_MT/data/WS24v2_external_test/clean_cifs/val_29'
_cell_length_a 15.80510
_cell_length_b 15.80510
_cell_length_c 22.38630
_cell_angle_alpha 90.00000
_cell_angle_beta  90.00000
_cell_angle_gamma 90.00000
_space_group_name_H-M_alt      'P 1'


loop_
_space_group_symop_operation_xyz
  'x, y, z' 

loop_
_atom_site_label
_atom_site_fract_x
_atom_site_fract_y
_atom_site_fract_z
_atom_site_type_symbol
O      0.00014  0.41102  0.41812     O
O      0.00014  0.91102  0.58192     O
H      0.01013  0.16669  0.79397     H
H      0.01013 0.66666667  0.20603     H
H      0.02075  0.31873  0.85989     H
H      0.02075  0.81873  0.14011     H
C      0.02154  0.29554  0.81984     C
C      0.02154  0.79554  0.18024     C
C      0.03884  0.13934  0.45184     C
C      0.03884  0.63934  0.54824     C
Cu      0.0422  0.02425   0.5549    Cu
Cu      0.0422  0.52425   0.4451    Cu
C      0.04554  0.22854  0.43024     C
C      0.04554  0.72854  0.56984     C
H      0.05934  0.40861   0.3381     H
H      0.05934  0.90861   0.6619     H
H        0.061  0.37289   0.6521     H
H        0.061  0.87289   0.3479     H
O      0.06804  0.12364  0.50182     O
O      0.06804  0.62364  0.49822     O
H      0.06873  0.22925  0.39011     H
H      0.06873  0.72925  0.60989     H
N      0.07054  0.42624  0.57062     N
N      0.07054  0.92624  0.42942     N
H      0.07966  0.36099   0.2825     H
H      0.07966  0.86099   0.7175     H
N      0.08297  0.40644  0.30354     N
N      0.08297  0.90644  0.69654     N
H      0.08331  0.26013  0.45603     H
H      0.08331  0.76013  0.54397     H
C      0.09614  0.38244  0.61952     C
C      0.09614  0.88244  0.38052     C
N      0.10424  0.07534  0.63282     N
N      0.10424  0.57534  0.36722     N
C      0.11074  0.28884  0.79824     C
C      0.11074  0.78884  0.20184     C
H      0.11099  0.17034   0.9675     H
H      0.11099  0.67034   0.0325     H
H      0.12289    0.189   0.5979     H
H      0.12289    0.689   0.4021     H
C      0.12497  0.47395  0.28234     C
C      0.12497  0.97395  0.71774     C
O      0.12644  0.31804  0.74822     O
O      0.12644  0.81804  0.25182     O
C      0.13244  0.15394  0.63052     C
C      0.13244  0.65394  0.36952     C
C      0.13304  0.04854  0.68714     C
C      0.13304  0.54854  0.31294     C
C      0.13694  0.42714  0.53474     C
C      0.13694  0.92714  0.46534     C
N      0.14284  0.46394  0.48012     N
N      0.14284  0.96394  0.51992     N
N      0.15644  0.16717  0.94654     N
N      0.15644  0.66717  0.05354     N
H      0.15861  0.19066   0.9119     H
H      0.15861  0.69066   0.0881     H
O      0.16102  0.24994  0.83192     O
O      0.16102  0.74994  0.16812     O
N      0.16167  0.46774  0.22644     N
N      0.16167  0.96774  0.77364     N
N      0.17474  0.35424  0.61722     N
N      0.17474  0.85424  0.38282     N
N      0.17624  0.17954  0.67942     N
N      0.17624  0.67954  0.32062     N
C      0.17714  0.11314  0.71534     C
C      0.17714  0.61314  0.28474     C
C      0.20154  0.38304  0.56294     C
C      0.20154  0.88304  0.43714     C
C      0.20347  0.03325  0.79604     C
C      0.20347  0.53325  0.20404     C
N      0.21394  0.10724  0.76992     N
N      0.21394  0.60724  0.23012     N
C      0.21685  0.45347  0.45404     C
C      0.21685  0.95347  0.54604     C
N      0.21774  0.08847  0.02364     N
N      0.21774  0.58847  0.97644     N
H      0.22374  0.47754  0.41647     H
H      0.22374  0.97754  0.58353     H
C      0.22395  0.12517  0.96774     C
C      0.22395  0.62517  0.03234     C
Cu     0.22575   0.2922   0.6951    Cu
Cu     0.22575   0.7922   0.3049    Cu
H      0.22754  0.02626  0.83353     H
H      0.22754  0.52626  0.16647     H
H      0.27246  0.47374  0.66647     H
H      0.27246  0.97374  0.33353     H
Cu     0.27425   0.2078   0.8049    Cu
Cu     0.27425   0.7078   0.1951    Cu
C      0.27615  0.37497  0.53234     C
C      0.27615  0.87497  0.46774     C
H      0.27626  0.02246  0.08353     H
H      0.27626  0.52246  0.91647     H
N      0.28234  0.41167  0.47644     N
N      0.28234  0.91167  0.52364     N
C      0.28325  0.04667  0.04604     C
C      0.28325  0.54667  0.95404     C
N      0.28614  0.39284  0.73012     N
N      0.28614  0.89284  0.26992     N
C      0.29667  0.46685  0.70404     C
C      0.29667  0.96685  0.29604     C
C      0.29854  0.11704  0.93714     C
C      0.29854  0.61704  0.06294     C
C      0.32294  0.38694  0.78474     C
C      0.32294  0.88694  0.21534     C
N      0.32384  0.32054  0.82062     N
N      0.32384  0.82054  0.17942     N
N      0.32534  0.14584  0.88282     N
N      0.32534  0.64584  0.11722     N
N      0.33847  0.03234  0.27364     N
N      0.33847  0.53234  0.72644     N
O      0.33902  0.25014  0.66812     O
O      0.33902  0.75014  0.33192     O
H      0.34139  0.30934   0.5881     H
H      0.34139  0.80934   0.4119     H
N      0.34364  0.33297  0.55354     N
N      0.34364  0.83297  0.44654     N
N      0.35724  0.03614  0.01992     N
N      0.35724  0.53614  0.98012     N
C      0.36314  0.07294  0.96534     C
C      0.36314  0.57294  0.03474     C
C      0.36704  0.45154  0.81294     C
C      0.36704  0.95154  0.18714     C
C      0.36764  0.34614  0.86952     C
C      0.36764  0.84614  0.13052     C
O      0.37364  0.18204  0.75182     O
O      0.37364  0.68204  0.24822     O
C      0.37517  0.02615  0.21774     C
C      0.37517  0.52615  0.78234     C
H      0.37711    0.311   0.9021     H
H      0.37711    0.811   0.0979     H
H      0.38901  0.32966   0.5325     H
H      0.38901  0.82966   0.4675     H
C      0.38934  0.21124  0.70184     C
C      0.38934  0.71124  0.29824     C
N      0.39584  0.42474  0.86722     N
N      0.39584  0.92474  0.13282     N
C      0.40394  0.11764  0.88052     C
C      0.40394  0.61764  0.11952     C
H      0.41669  0.23987  0.04397     H
H      0.41669  0.73987  0.95603     H
N      0.41717  0.09364  0.19654     N
N      0.41717  0.59364  0.80354     N
H      0.42034  0.13901   0.2175     H
H      0.42034  0.63901   0.7825     H
N      0.42954  0.07384  0.92942     N
N      0.42954  0.57384  0.07062     N
H      0.43127  0.27075  0.10989     H
H      0.43127  0.77075  0.89011     H
O      0.43204  0.37644  0.99822     O
O      0.43204  0.87644  0.00182     O
H        0.439  0.12711   0.8479     H
H        0.439  0.62711   0.1521     H
H      0.44066  0.09139   0.1619     H
H      0.44066  0.59139   0.8381     H
C      0.45454  0.27154  0.06984     C
C      0.45454  0.77154  0.93024     C
Cu      0.4578  0.47575   0.9451    Cu
Cu      0.4578  0.97575   0.0549    Cu
C      0.46124  0.36074  0.04824     C
C      0.46124  0.86074  0.95184     C
C      0.47854  0.20454  0.68024     C
C      0.47854  0.70454  0.31984     C
H      0.47925  0.18127  0.64011     H
H      0.47925  0.68127  0.35989     H
H      0.48987 0.33333333  0.70603     H
H      0.48987  0.83331  0.29397     H
O      0.49994  0.08902  0.08192     O
O      0.49994  0.58902  0.91812     O
O      0.50014  0.41102  0.08192     O
O      0.50014  0.91102  0.91812     O
H      0.51013  0.16669  0.70603     H
H      0.51013 0.66666667  0.29397     H
H      0.52075  0.31873  0.64011     H
H      0.52075  0.81873  0.35989     H
C      0.52154  0.29554  0.68024     C
C      0.52154  0.79554  0.31984     C
C      0.53884  0.13934  0.04824     C
C      0.53884  0.63934  0.95184     C
Cu      0.5422  0.02425   0.9451    Cu
Cu      0.5422  0.52425   0.0549    Cu
C      0.54554  0.22854  0.06984     C
C      0.54554  0.72854  0.93024     C
H      0.55934  0.40861   0.1619     H
H      0.55934  0.90861   0.8381     H
H        0.561  0.37289   0.8479     H
H        0.561  0.87289   0.1521     H
O      0.56804  0.12364  0.99822     O
O      0.56804  0.62364  0.00182     O
H      0.56873  0.22925  0.10989     H
H      0.56873  0.72925  0.89011     H
N      0.57054  0.42624  0.92942     N
N      0.57054  0.92624  0.07062     N
H      0.57966  0.36099   0.2175     H
H      0.57966  0.86099   0.7825     H
N      0.58297  0.40644  0.19654     N
N      0.58297  0.90644  0.80354     N
H      0.58331  0.26013  0.04397     H
H      0.58331  0.76013  0.95603     H
C      0.59614  0.38244  0.88052     C
C      0.59614  0.88244  0.11952     C
N      0.60424  0.07534  0.86722     N
N      0.60424  0.57534  0.13282     N
C      0.61074  0.28884  0.70184     C
C      0.61074  0.78884  0.29824     C
H      0.61099  0.17034   0.5325     H
H      0.61099  0.67034   0.4675     H
H      0.62289    0.189   0.9021     H
H      0.62289    0.689   0.0979     H
C      0.62497  0.47395  0.21774     C
C      0.62497  0.97395  0.78234     C
O      0.62644  0.31804  0.75182     O
O      0.62644  0.81804  0.24822     O
C      0.63244  0.15394  0.86952     C
C      0.63244  0.65394  0.13052     C
C      0.63304  0.04854  0.81294     C
C      0.63304  0.54854  0.18714     C
C      0.63694  0.42714  0.96534     C
C      0.63694  0.92714  0.03474     C
N      0.64284  0.46394  0.01992     N
N      0.64284  0.96394  0.98012     N
N      0.65644  0.16717  0.55354     N
N      0.65644  0.66717  0.44654     N
H      0.65861  0.19066   0.5881     H
H      0.65861  0.69066   0.4119     H
O      0.66102  0.24994  0.66812     O
O      0.66102  0.74994  0.33192     O
N      0.66167  0.46774  0.27364     N
N      0.66167  0.96774  0.72644     N
N      0.67474  0.35424  0.88282     N
N      0.67474  0.85424  0.11722     N
N      0.67624  0.17954  0.82062     N
N      0.67624  0.67954  0.17942     N
C      0.67714  0.11314  0.78474     C
C      0.67714  0.61314  0.21534     C
C      0.70154  0.38304  0.93714     C
C      0.70154  0.88304  0.06294     C
C      0.70347  0.03325  0.70404     C
C      0.70347  0.53325  0.29604     C
N      0.71394  0.10724  0.73012     N
N      0.71394  0.60724  0.26992     N
C      0.71685  0.45347  0.04604     C
C      0.71685  0.95347  0.95404     C
N      0.71774  0.08847  0.47644     N
N      0.71774  0.58847  0.52364     N
H      0.72374  0.47754  0.08353     H
H      0.72374  0.97754  0.91647     H
C      0.72395  0.12517  0.53234     C
C      0.72395  0.62517  0.46774     C
Cu     0.72575   0.2922   0.8049    Cu
Cu     0.72575   0.7922   0.1951    Cu
H      0.72754  0.02626  0.66647     H
H      0.72754  0.52626  0.33353     H
H      0.77246  0.47374  0.83353     H
H      0.77246  0.97374  0.16647     H
Cu     0.77425   0.2078   0.6951    Cu
Cu     0.77425   0.7078   0.3049    Cu
C      0.77615  0.37497  0.96774     C
C      0.77615  0.87497  0.03234     C
H      0.77626  0.02246  0.41647     H
H      0.77626  0.52246  0.58353     H
N      0.78234  0.41167  0.02364     N
N      0.78234  0.91167  0.97644     N
C      0.78325  0.04667  0.45404     C
C      0.78325  0.54667  0.54604     C
N      0.78614  0.39284  0.76992     N
N      0.78614  0.89284  0.23012     N
C      0.79667  0.46685  0.79604     C
C      0.79667  0.96685  0.20404     C
C      0.79854  0.11704  0.56294     C
C      0.79854  0.61704  0.43714     C
C      0.82294  0.38694  0.71534     C
C      0.82294  0.88694  0.28474     C
N      0.82384  0.32054  0.67942     N
N      0.82384  0.82054  0.32062     N
N      0.82534  0.14584  0.61722     N
N      0.82534  0.64584  0.38282     N
N      0.83847  0.03234  0.22644     N
N      0.83847  0.53234  0.77364     N
O      0.83902  0.25014  0.83192     O
O      0.83902  0.75014  0.16812     O
H      0.84139  0.30934   0.9119     H
H      0.84139  0.80934   0.0881     H
N      0.84364  0.33297  0.94654     N
N      0.84364  0.83297  0.05354     N
N      0.85724  0.03614  0.48012     N
N      0.85724  0.53614  0.51992     N
C      0.86314  0.07294  0.53474     C
C      0.86314  0.57294  0.46534     C
C      0.86704  0.45154  0.68714     C
C      0.86704  0.95154  0.31294     C
C      0.86764  0.34614  0.63052     C
C      0.86764  0.84614  0.36952     C
O      0.87364  0.18204  0.74822     O
O      0.87364  0.68204  0.25182     O
C      0.87517  0.02615  0.28234     C
C      0.87517  0.52615  0.71774     C
H      0.87711    0.311   0.5979     H
H      0.87711    0.811   0.4021     H
H      0.88901  0.32966   0.9675     H
H      0.88901  0.82966   0.0325     H
C      0.88934  0.21124  0.79824     C
C      0.88934  0.71124  0.20184     C
N      0.89584  0.42474  0.63282     N
N      0.89584  0.92474  0.36722     N
C      0.90394  0.11764  0.61952     C
C      0.90394  0.61764  0.38052     C
H      0.91669  0.23987  0.45603     H
H      0.91669  0.73987  0.54397     H
N      0.91717  0.09364  0.30354     N
N      0.91717  0.59364  0.69654     N
H      0.92034  0.13901   0.2825     H
H      0.92034  0.63901   0.7175     H
N      0.92954  0.07384  0.57062     N
N      0.92954  0.57384  0.42942     N
H      0.93127  0.27075  0.39011     H
H      0.93127  0.77075  0.60989     H
O      0.93204  0.37644  0.50182     O
O      0.93204  0.87644  0.49822     O
H        0.939  0.12711   0.6521     H
H        0.939  0.62711   0.3479     H
H      0.94066  0.09139   0.3381     H
H      0.94066  0.59139   0.6619     H
C      0.95454  0.27154  0.43024     C
C      0.95454  0.77154  0.56984     C
Cu      0.9578  0.47575   0.5549    Cu
Cu      0.9578  0.97575   0.4451    Cu
C      0.96124  0.36074  0.45184     C
C      0.96124  0.86074  0.54824     C
C      0.97854  0.20454  0.81984     C
C      0.97854  0.70454  0.18024     C
H      0.97925  0.18127  0.85989     H
H      0.97925  0.68127  0.14011     H
H      0.98987 0.33333333  0.79397     H
H      0.98987  0.83331  0.20603     H
O      0.99994  0.08902  0.41812     O
O      0.99994  0.58902  0.58192     O
