data_I
_chemical_name_common  '/home/zhangsd/repos/MofS-CGCNN/CGCNN_MT/data/WS24v2_external_test/clean_cifs/val_35'
_cell_length_a 10.06530
_cell_length_b 10.89740
_cell_length_c 10.93950
_cell_angle_alpha 90.67610
_cell_angle_beta  91.72920
_cell_angle_gamma 92.72520
_space_group_name_H-M_alt      'P 1'


loop_
_space_group_symop_operation_xyz
  'x, y, z' 

loop_
_atom_site_label
_atom_site_fract_x
_atom_site_fract_y
_atom_site_fract_z
_atom_site_type_symbol
H      0.14355  0.54825  0.01674     H
H      0.18815   0.9482  0.53942     H
H      0.21483  0.52859  0.82529     H
H      0.22906  0.96757  0.69797     H
H      0.23744  0.68889  0.04351     H
H      0.24061  0.75645  0.57343     H
C      0.24131  0.59461  0.01021     C
H      0.24311  0.07522  0.40473     H
H       0.2584  0.68828  0.83978     H
C       0.2692  0.95192   0.6082     C
H      0.26929  0.34385  0.03847     H
C      0.27761  0.59761  0.87509     C
C       0.3172   0.8212   0.6122     C
H      0.32498  0.84482  0.36775     H
C      0.33421  0.09991  0.45749     C
C      0.33791  0.52939  0.09071     C
H      0.34116  0.79587  0.70584     H
C      0.34971  0.06911  0.58139     C
C      0.35241  0.40298  0.07379     C
H      0.36431   0.3942  0.77133     H
O      0.36879  0.04107  0.82893     O
Cu     0.37312  0.98467  0.00131    Cu
O      0.37629  0.15877  0.05825     O
O      0.40801  0.81897  0.94235     O
O      0.41169  0.93345  0.17145     O
H       0.4141  0.68467  0.19212     H
C      0.41961  0.57238  0.85441     C
C      0.42211  0.85451  0.41448     C
H      0.42512  0.20126   0.3157     H
C      0.43491  0.59389  0.15728     C
C      0.43861  0.82121  0.53699     C
C      0.43961  0.16261  0.40629     C
C      0.44241  0.45119  0.81801     C
C      0.46691  0.09979  0.64627     C
C      0.47451  0.35417  0.10258     C
C      0.47651  0.06829  0.78268     C
C      0.47891  0.21829  0.06788     C
C      0.52111  0.78189  0.93212     C
C      0.52351  0.93189  0.21748     C
C      0.52551  0.64597  0.89742     C
C      0.53311  0.90039  0.35387     C
C      0.55761  0.54899  0.18199     C
C      0.56041  0.83741  0.59389     C
C      0.56141  0.17881  0.46319     C
C      0.56511  0.40629  0.84272     C
H      0.57488  0.79874   0.6843     H
C      0.57791  0.14551  0.58568     C
C      0.58041  0.42778  0.14559     C
H       0.5859  0.31533  0.80788     H
O      0.58849  0.06665  0.82855     O
O      0.59201  0.18117  0.05765     O
O      0.62389  0.84137  0.94175     O
Cu     0.62692  0.01533  0.99869    Cu
O      0.63139  0.95907  0.17107     O
H      0.63569   0.6058  0.22867     H
C      0.64761  0.59718  0.92621     C
C      0.65031  0.93091  0.41879     C
H      0.65884  0.20413  0.29416     H
C      0.66211  0.47079  0.90929     C
C      0.66581  0.90011  0.54269     C
H      0.67502  0.15518  0.63225     H
C       0.6832   0.1792   0.3882     C
C      0.72241  0.40241  0.12491     C
H      0.73071  0.65615  0.96153     H
C       0.7312  0.04812   0.3922     C
H       0.7416  0.31172  0.16022     H
H      0.75689  0.92478  0.59527     H
C      0.75871  0.40541  0.98979     C
H      0.75939  0.24355  0.42657     H
H      0.76256  0.31111  0.95649     H
H      0.77094  0.03243  0.30203     H
H      0.78517  0.47141  0.17471     H
H      0.81185   0.0518  0.46058     H
H      0.85645  0.45175  0.98326     H
