data_I
_chemical_name_common  '/home/zhangsd/repos/MofS-CGCNN/CGCNN_MT/data/WS24v2_external_test/clean_cifs/val_34'
_cell_length_a  7.26855
_cell_length_b 14.69540
_cell_length_c 19.35750
_cell_angle_alpha 78.96260
_cell_angle_beta  79.28050
_cell_angle_gamma 75.78850
_space_group_name_H-M_alt      'P 1'


loop_
_space_group_symop_operation_xyz
  'x, y, z' 

loop_
_atom_site_label
_atom_site_fract_x
_atom_site_fract_y
_atom_site_fract_z
_atom_site_type_symbol
H      0.00128  0.99749   0.0598     H
C      0.00245  0.46432  0.43815     C
C      0.00584  0.01812  0.68817     C
O      0.01154   0.6661  0.33282     O
C      0.01491  0.42125  0.37114     C
C      0.01785  0.07172  0.31592     C
H      0.01924  0.14981  0.92343     H
H        0.051  0.41546  0.19267     H
O      0.05194  0.57738  0.20104     O
C      0.05464  0.43872  0.56127     C
C      0.05805  0.40182   0.5001     C
C      0.06641  0.32497  0.37275     C
Eu     0.06734  0.74216  0.21058    Eu
H      0.06848  0.71203  0.83859     H
H      0.07131  0.29545   0.3247     H
O      0.08674  0.19678  0.89169     O
N      0.08818  0.85554  0.97222     N
C      0.09338  0.93664  0.92644     C
C      0.09625  0.57054  0.81792     C
C      0.11324  0.37392  0.62745     C
C      0.11371  0.26247  0.43585     C
H      0.11475  0.78655  0.66458     H
C      0.11791  0.29605  0.49554     C
C      0.12474  0.40632  0.79846     C
C      0.13655  0.85656  0.66684     C
H      0.14715  0.18597  0.43589     H
O      0.15854  0.82574  0.28785     O
H      0.16162  0.08564  0.30516     H
C      0.16187  0.64204  0.83604     C
H      0.16523  0.24632   0.5415     H
C      0.17194  0.90692  0.29774     C
H      0.18285  0.20447  0.17322     H
C      0.19244  0.03452  0.67544     C
H      0.19816   0.7075  0.98832     H
C      0.19927  0.77404  0.95214     C
C      0.21334  0.48092  0.81282     C
C      0.21438  0.93874  0.86284     C
O      0.21454  0.15287  0.74186     O
O      0.21564  0.86458  0.13912     O
H      0.22213  0.16538  0.87696     H
H      0.22257  0.00639  0.82904     H
O      0.22834  0.32529  0.78787     O
H      0.23225  0.75073  0.41234     H
C      0.25064  0.12372  0.68073     C
H      0.25345  0.31452  0.06324     H
C      0.25661  0.17537  0.12534     C
H      0.26519  0.03386  0.17715     H
O      0.28144  0.36335  0.63856     O
C      0.30141  0.07975  0.12774     C
C      0.30151  0.23827  0.06355     C
C      0.31347  0.77304  0.88714     C
C      0.31885  0.87406  0.65234     C
O      0.32424  0.69725  0.39176     O
C      0.32437  0.85634  0.84174     C
O      0.33154  0.92321  0.29821     O
C      0.34705  0.96256  0.65642     C
C      0.34735  0.62374  0.85084     C
O      0.35064   0.1615  0.63025     O
O      0.35634  0.66299  0.12991     O
C      0.38494  0.87412  0.12747     C
H      0.38594   0.4781  0.14222     H
H      0.38881  0.79266  0.51408     H
O      0.39054  0.65319  0.24139     O
C      0.40235  0.03602  0.06147     C
C      0.40344  0.46432  0.82581     C
C      0.40521  0.20435  0.00364     C
H      0.40625  0.65983   0.4276     H
N      0.41211  0.64456  0.52864     N
H      0.41744  0.85662  0.79065     H
C      0.42107  0.72556  0.54964     C
O      0.43235  0.68874  0.86964     O
H       0.4352  0.35999  0.28986     H
H      0.44002  0.49719   0.5583     H
C      0.44404  0.62482  0.18029     C
C      0.44504  0.93902  0.06133     C
H      0.44574  0.50888  0.32909     H
H      0.45166  0.25387  0.95806     H
C      0.45378  0.56266  0.57334     C
C      0.45665  0.09852  0.99961     C
C      0.46825  0.53554  0.84592     C
C      0.47007  0.72516  0.61514     C
C      0.47962  0.35874  0.34084     C
Eu        0.48  0.24182   0.7105    Eu
C      0.48689  0.44084  0.36254     C
O      0.48695  0.80886  0.63464     O
O      0.48914  0.16653  0.83305     O
H      0.49137   0.9759  0.64462     H
H      0.50863   0.0241  0.35539     H
O      0.51094  0.83347  0.16695     O
O      0.51305  0.19114  0.36544     O
C      0.51311  0.55916  0.63754     C
Eu        0.52  0.75818   0.2895    Eu
C      0.52038  0.64126  0.65924     C
C      0.52993  0.27484  0.38494     C
C      0.53185  0.46454  0.15412     C
C      0.54345  0.90152  0.00039     C
C      0.54622  0.43734  0.42674     C
H      0.55426  0.49112  0.67091     H
C      0.55504  0.06102  0.93867     C
C      0.55604  0.37522  0.81971     C
H      0.55998  0.50281   0.4417     H
H       0.5648  0.64001  0.71014     H
O      0.56775  0.31134  0.13044     O
H      0.57814  0.82509  0.00031     H
C      0.57893  0.27444  0.45044     C
H      0.58256  0.14338  0.20935     H
N      0.58789  0.35544  0.47144     N
C      0.59664  0.53572  0.17419     C
C      0.59775  0.96402  0.93853     C
O      0.60954  0.34681  0.75861     O
H      0.61119  0.20734  0.48592     H
H      0.61406   0.5219  0.85778     H
C      0.61514  0.12592  0.87253     C
O      0.64374  0.33701  0.87009     O
O      0.64936   0.8385  0.36975     O
C      0.65275  0.37634  0.14924     C
C      0.65295  0.03744  0.34362     C
O      0.66854  0.07679  0.70179     O
H      0.67351  0.93537  0.89063     H
C      0.67577  0.14374  0.15834     C
O      0.67584  0.30275  0.60824     O
C      0.68115  0.12594  0.34774     C
C      0.68667  0.22704  0.11294     C
O      0.71864  0.63665  0.36144     O
H      0.74773  0.34428  0.62192     H
C      0.74936  0.87632  0.31927     C
H      0.76775  0.24927  0.58766     H
O      0.77166  0.67471  0.21213     O
H      0.77743  0.99361  0.17096     H
H      0.77787  0.83462  0.12304     H
O      0.78444  0.13542  0.86088     O
O      0.78546  0.84713  0.25814     O
C      0.78578  0.06134  0.13724     C
C      0.78674  0.51912  0.18722     C
C      0.80087  0.22604  0.04794     C
H      0.80184   0.2925  0.01168     H
C      0.80756  0.96552  0.32456     C
C      0.82814  0.09312  0.70226     C
C      0.83827  0.35804  0.16404     C
H      0.83838  0.91436  0.69484     H
O      0.84154  0.17426  0.71215     O
C      0.86345  0.14344  0.33324     C
C      0.87534  0.59372  0.20154     C
H      0.88525  0.21345  0.33542     H
C      0.88684  0.62612  0.37255     C
H      0.89709  0.67445  0.50045     H
C      0.90385  0.42954  0.18212     C
C      0.90678  0.06344  0.07364     C
N      0.91198  0.14454  0.02782     N
O      0.91326  0.80322  0.10831     O
H       0.9168  0.75041  0.08252     H
H      0.93152  0.28797  0.16141     H
Eu     0.93266  0.25784  0.78942    Eu
C      0.94205  0.59822   0.4999     C
C      0.94544  0.56132  0.43873     C
O      0.94806  0.42262  0.79896     O
H        0.949  0.58454  0.80733     H
C      0.98225  0.92828  0.68412     C
H      0.98261  0.46745  0.32175     H
O      0.98854   0.3339  0.66718     O
C      0.99416  0.98192  0.31183     C
H      0.99536  0.56424  0.61001     H
C      0.99765  0.53572  0.56185     C
H      0.99872  0.00251   0.9402     H
