data_I
_chemical_name_common  '/home/zhangsd/repos/MofS-CGCNN/CGCNN_MT/data/WS24v2_external_test/clean_cifs/val_12'
_cell_length_a 14.95000
_cell_length_b 30.09320
_cell_length_c 16.88140
_cell_angle_alpha 90.00000
_cell_angle_beta  113.61800
_cell_angle_gamma 90.00000
_space_group_name_H-M_alt      'P 1'


loop_
_space_group_symop_operation_xyz
  'x, y, z' 

loop_
_atom_site_label
_atom_site_fract_x
_atom_site_fract_y
_atom_site_fract_z
_atom_site_type_symbol
O      0.01414  0.03292  0.78402     O
O      0.01414  0.46708  0.28402     O
O      0.01854  0.10052  0.02172     O
O      0.01854  0.39948  0.52172     O
O      0.01874  0.10079  0.83702     O
O      0.01874  0.39921  0.33702     O
O      0.02822  0.03315  0.07472     O
O      0.02822  0.46685  0.57472     O
C      0.04154  0.07275  0.79094     C
C      0.04154  0.42725  0.29094     C
Eu     0.04508  0.54533  0.59581    Eu
Eu     0.04508  0.95467  0.09581    Eu
C      0.04784  0.07443  0.08494     C
C      0.04784  0.42557  0.58494     C
H      0.05947  0.04027  0.65336     H
H      0.05947  0.45973  0.15335     H
H      0.06843  0.04045  0.23409     H
H      0.06843  0.45955  0.73409     H
H      0.08219   0.2348  0.51159     H
H      0.08219   0.2652  0.01159     H
C      0.09884  0.06616  0.67184     C
C      0.09884  0.43384  0.17184     C
H      0.10085  0.57446  0.99709     H
H      0.10085  0.92554  0.49709     H
C      0.10194  0.08833  0.74404     C
C      0.10194  0.41167  0.24404     C
C      0.10494  0.06726  0.24444     C
C      0.10494  0.43274  0.74444     C
C      0.10714  0.09128  0.17504     C
C      0.10714  0.40872  0.67504     C
H      0.12303  0.57398  0.91189     H
H      0.12303  0.92602  0.41189     H
O      0.12692   0.0315  0.95932     O
O      0.12692   0.4685  0.45932     O
H      0.14113  0.50565  0.09046     H
H      0.14113  0.99435  0.59046     H
C      0.14154  0.51263  0.97064     C
C      0.14154  0.98737  0.47064     C
C      0.14284   0.0104  0.54264     C
C      0.14284   0.4896  0.04264     C
C      0.14445  0.56299  0.97134     C
C      0.14445  0.93701  0.47134     C
H      0.14461  0.50437  0.85318     H
H      0.14461  0.99563  0.35318     H
C      0.14544  0.01127  0.40244     C
C      0.14544  0.48873  0.90244     C
C      0.14654  0.05699  0.54554     C
C      0.14654  0.44301  0.04554     C
C      0.14755  0.23294  0.55825     C
C      0.14755  0.26714  0.05825     C
C      0.15044  0.08015  0.47584     C
C      0.15044  0.41985  0.97584     C
C      0.15064  0.05762  0.40294     C
C      0.15064  0.44238  0.90294     C
C      0.15144  0.08051  0.62514     C
C      0.15144  0.41949  0.12514     C
H      0.15282   0.1117  0.47732     H
H      0.15282   0.3883  0.97732     H
H      0.15406  0.24457  0.10216     H
H      0.15406  0.25543  0.60216     H
C      0.15594  0.08205  0.32964     C
C      0.15594  0.41795  0.82964     C
H      0.15702  0.20331  0.58449     H
H      0.15702  0.29669  0.08449     H
C      0.16004  0.12642  0.77224     C
C      0.16004  0.37358  0.27224     C
H       0.1611   0.1422  0.82135     H
H       0.1611   0.3578  0.32136     H
H      0.16131  0.14718  0.13993     H
H      0.16131  0.35282  0.63993     H
C      0.16144  0.13059  0.18794     C
C      0.16144  0.36941  0.68794     C
O      0.17692   0.5221  0.55912     O
O      0.17692   0.9779  0.05912     O
O      0.18114  0.60431  0.65962     O
O      0.18114  0.89569  0.15962     O
C      0.18334   0.0162  0.03024     C
C      0.18334   0.4838  0.53024     C
O      0.18424  0.54343  0.73282     O
O      0.18424  0.95657  0.23282     O
O      0.19744  0.24702  0.44294     O
O      0.19744  0.25298  0.94294     O
C      0.21074  0.11857  0.65484     C
C      0.21074  0.38143  0.15484     C
H      0.21124  0.57307  0.00532     H
H      0.21124  0.92693  0.50532     H
C      0.21174  0.12107  0.34284     C
C      0.21174  0.37893  0.84284     C
C      0.21564  0.14496  0.27224     C
C      0.21564  0.35504  0.77224     C
C      0.21594  0.14117  0.72904     C
C      0.21594  0.35883  0.22904     C
C      0.21714  0.58132  0.72824     C
C      0.21714  0.91868  0.22824     C
C      0.22244  0.24092  0.52234     C
C      0.22244  0.25912  0.02234     C
H      0.23957  0.09634  0.99873     H
H      0.23957  0.40366  0.49873     H
H      0.24729  0.13153  0.39993     H
H      0.24729  0.36847  0.89993     H
H      0.24762  0.12898  0.62394     H
H      0.24762  0.37102  0.12394     H
C      0.26544  0.04575  0.08574     C
C      0.26544  0.45425  0.58574     C
H      0.26848  0.67422  0.10599     H
H      0.26848  0.82578  0.60599     H
O      0.27604  0.20129  0.82442     O
O      0.27604  0.29871  0.32442     O
C      0.27954  0.18515  0.28904     C
C      0.27954  0.31485  0.78904     C
C      0.27984   0.0873  0.05594     C
C      0.27984   0.4127  0.55594     C
C      0.28064  0.18084  0.76104     C
C      0.28064  0.31916  0.26104     C
O      0.29224  0.20288  0.22712     O
O      0.29224  0.29712  0.72712     O
H      0.29856    0.545  0.88002     H
H      0.29856    0.955  0.38002     H
C      0.30114  0.59837  0.80604     C
C      0.30114  0.90163  0.30604     C
O      0.31244  0.24123  0.57162     O
O      0.31244  0.25877  0.07162     O
H      0.31572  0.00411  0.18923     H
H      0.31572  0.49589  0.68923     H
O      0.31684  0.19906  0.36572     O
O      0.31684  0.30094  0.86572     O
O      0.32054  0.16904  0.99934     O
O      0.32054  0.33096  0.49934     O
H      0.32337  0.67245  0.04183     H
H      0.32337  0.82755  0.54183     H
C      0.32504   0.0325  0.16914     C
C      0.32504   0.4675  0.66914     C
C      0.32867  0.66534  0.10017     C
C      0.32867  0.83474  0.60017     C
C      0.32994  0.57262  0.88154     C
C      0.32994  0.92738  0.38154     C
H      0.33174  0.65474  0.75564     H
H      0.33174  0.84526  0.25564     H
O      0.33484   0.1915  0.72322     O
O      0.33484   0.3085  0.22322     O
H      0.33825  0.63319  0.10992     H
H      0.33825  0.86681  0.60992     H
H      0.34021  0.71106  0.58436     H
H      0.34021  0.78894  0.08436     H
H      0.34345   0.0637  0.60563     H
H      0.34345   0.4363  0.10563     H
C      0.34834  0.63776  0.80704     C
C      0.34834  0.86224  0.30704     C
H      0.35005  0.66496  0.54128     H
H      0.35005  0.83504  0.04128     H
C      0.35184  0.11529  0.10894     C
C      0.35184  0.38471  0.60894     C
Eu     0.36491  0.23773  0.95324    Eu
Eu     0.36491  0.26227  0.45324    Eu
H      0.36494  0.50164  0.97498     H
H      0.36494  0.99836  0.47498     H
C      0.36834  0.15949  0.07724     C
C      0.36834  0.34051  0.57724     C
C      0.38388  0.68614  0.58787     C
C      0.38388  0.81394  0.08787     C
H      0.38574  0.07411  0.53424     H
H      0.38574  0.42589  0.03424     H
C      0.39834  0.06047  0.22354     C
C      0.39834  0.43953  0.72354     C
O      0.40014  0.71996  0.20834     O
O      0.40014  0.78004  0.70834     O
C      0.40195  0.06302  0.59295     C
C      0.40195  0.43702  0.09295     C
H      0.40267  0.67129  0.64383     H
H      0.40267  0.82871  0.14383     H
C      0.40444  0.58692  0.95934     C
C      0.40444  0.91308  0.45934     C
C      0.40794  0.51259  0.02994     C
C      0.40794  0.98741  0.52994     C
C      0.41034  0.10242  0.19294     C
C      0.41034  0.39762  0.69294     C
C      0.41417  0.68982  0.16585     C
C      0.41417  0.81022  0.66585     C
C      0.42154  0.65249  0.88504     C
C      0.42154  0.84751  0.38504     C
Eu     0.42523  0.24276   0.2234    Eu
Eu     0.42523  0.25724   0.7234    Eu
O      0.43254  0.18565  0.12954     O
O      0.43254  0.31435  0.62954     O
C      0.43804   0.5571  0.03734     C
C      0.43804   0.9429  0.53734     C
C      0.43894  0.01572  0.59994     C
C      0.43894  0.48428  0.09994     C
C      0.44674  0.62788  0.95964     C
C      0.44674  0.87212  0.45964     C
H      0.45263  0.08179  0.63448     H
H      0.45263  0.41821  0.13448     H
H      0.45868  0.12207  0.22983     H
H      0.45868  0.37793  0.72983     H
C      0.46494  0.04432  0.31054     C
C      0.46494  0.45572  0.81054     C
H      0.47124  0.51923  0.77161     H
H      0.47124  0.98077  0.27161     H
C      0.47237  0.70294  0.57865     C
C      0.47237  0.79714  0.07865     C
C      0.47524  0.69475  0.88694     C
C      0.47524  0.80525  0.38694     C
O      0.47654  0.23316  0.87064     O
O      0.47654  0.26684  0.37064     O
H      0.47945  0.10291  0.37574     H
H      0.47945  0.39709  0.87574     H
O      0.48114  0.70784  0.81864     O
O      0.48114  0.79216  0.31864     O
O      0.48834  0.21628  0.54184     O
O      0.48834  0.28372  0.04184     O
O      0.49314  0.68893  0.51874     O
O      0.49314  0.81107  0.01874     O
H      0.49399  0.63922  0.01222     H
H      0.49399  0.86078  0.51222     H
C      0.49534  0.00022  0.31994     C
C      0.49534  0.49982  0.81994     C
O      0.49854  0.68035  0.17244     O
O      0.49854  0.81965  0.67244     O
C      0.49934  0.07267  0.38224     C
C      0.49934  0.42733  0.88224     C
C      0.50074  0.57267  0.11784     C
C      0.50074  0.92733  0.61784     C
O      0.50154  0.18035  0.32764     O
O      0.50154  0.31965  0.82764     O
C      0.50474  0.50022  0.18014     C
C      0.50474  0.99982  0.68014     C
H      0.50601  0.13922  0.48778     H
H      0.50601  0.36078  0.98778     H
O      0.50694  0.18893  0.98134     O
O      0.50694  0.31107  0.48134     O
O      0.51174  0.71628  0.95824     O
O      0.51174  0.78372  0.45824     O
O      0.51894  0.20784  0.68144     O
O      0.51894  0.29216  0.18144     O
H      0.52055  0.60291  0.12426     H
H      0.52055  0.89709  0.62426     H
O      0.52354  0.73316  0.62944     O
O      0.52354  0.76684  0.12944     O
C      0.52484  0.19475  0.61314     C
C      0.52484  0.30525  0.11314     C
C      0.52777  0.20294  0.92145     C
C      0.52777  0.29714  0.42145     C
H      0.52876  0.01922  0.72839     H
H      0.52876  0.48078  0.22839     H
C      0.53514  0.54432  0.18954     C
C      0.53514  0.95572  0.68954     C
H      0.54132  0.62207  0.27017     H
H      0.54132  0.87793  0.77017     H
H      0.54737  0.58179  0.86552     H
H      0.54737  0.91821  0.36552     H
C      0.55334  0.12788  0.54044     C
C      0.55334  0.37212  0.04044     C
C      0.56114  0.51572  0.90014     C
C      0.56114  0.98428  0.40014     C
C      0.56204   0.0571  0.46274     C
C      0.56204   0.4429  0.96274     C
O      0.56754  0.68565  0.37054     O
O      0.56754  0.81435  0.87054     O
Eu     0.57477  0.74276   0.2766    Eu
Eu     0.57477  0.75724   0.7766    Eu
C      0.57854  0.15249  0.61504     C
C      0.57854  0.34751  0.11504     C
C      0.58597  0.18982  0.33425     C
C      0.58597  0.31022  0.83425     C
C      0.58974  0.60242  0.30714     C
C      0.58974  0.89762  0.80714     C
C      0.59214  0.01259  0.47014     C
C      0.59214  0.48741  0.97014     C
C      0.59564  0.08692  0.54074     C
C      0.59564  0.41308  0.04074     C
H      0.59733  0.17129  0.85617     H
H      0.59733  0.32871  0.35617     H
C      0.59815  0.56302  0.90715     C
C      0.59815  0.93702  0.40715     C
O      0.59994  0.21996  0.29174     O
O      0.59994  0.28004  0.79174     O
C      0.60174  0.56047  0.27654     C
C      0.60174  0.93953  0.77654     C
H      0.61426  0.57411  0.96576     H
H      0.61426  0.92589  0.46576     H
C      0.61628  0.18614  0.91227     C
C      0.61628  0.31394  0.41227     C
C      0.63174  0.65949  0.42284     C
C      0.63174  0.84051  0.92284     C
H      0.63506  0.00164  0.52502     H
H      0.63506  0.49836  0.02501     H
Eu     0.63509  0.73773  0.54676    Eu
Eu     0.63509  0.76227  0.04676    Eu
C      0.64824  0.61529  0.39114     C
C      0.64824  0.88471  0.89114     C
H      0.64995  0.16496  0.95872     H
H      0.64995  0.33504  0.45872     H
C      0.65174  0.13776  0.69304     C
C      0.65174  0.36224  0.19304     C
H      0.65655   0.5637  0.89437     H
H      0.65655   0.9363  0.39437     H
H      0.65979  0.21106  0.91564     H
H      0.65979  0.28894  0.41564     H
H      0.66175  0.13319  0.39008     H
H      0.66175  0.36681  0.89008     H
O      0.66524   0.6915  0.77682     O
O      0.66524   0.8085  0.27682     O
H      0.66826  0.15474  0.74436     H
H      0.66826  0.34526  0.24436     H
C      0.67014  0.07262  0.61854     C
C      0.67014  0.42738  0.11854     C
C      0.67147  0.16534  0.39997     C
C      0.67147  0.33474  0.89997     C
C      0.67504   0.5325  0.33094     C
C      0.67504   0.9675  0.83094     C
H      0.67663  0.17245  0.45816     H
H      0.67663  0.32755  0.95817     H
O      0.67954  0.66904  0.50074     O
O      0.67954  0.83096  0.00074     O
O      0.68324  0.69906  0.13432     O
O      0.68324  0.80094  0.63432     O
H      0.68428  0.50411  0.31077     H
H      0.68428  0.99589  0.81077     H
O      0.68764  0.74123  0.92842     O
O      0.68764  0.75877  0.42842     O
C      0.69894  0.09837  0.69404     C
C      0.69894  0.40163  0.19404     C
H      0.70144    0.045  0.61998     H
H      0.70144    0.455  0.11998     H
O      0.70784  0.70288  0.27292     O
O      0.70784  0.79712  0.77292     O
C      0.71944  0.68084  0.73904     C
C      0.71944  0.81916  0.23904     C
C      0.72024   0.5873  0.44414     C
C      0.72024   0.9127  0.94414     C
C      0.72054  0.68515  0.21104     C
C      0.72054  0.81485  0.71104     C
O      0.72404  0.70129  0.67562     O
O      0.72404  0.79871  0.17562     O
H      0.73152  0.17422  0.39401     H
H      0.73152  0.32578  0.89401     H
C      0.73464  0.54575  0.41434     C
C      0.73464  0.95425  0.91434     C
H      0.75238  0.62898  0.87606     H
H      0.75238  0.87102  0.37606     H
H      0.75272  0.63153  0.10007     H
H      0.75272  0.86847  0.60007     H
H      0.76043  0.59634  0.50127     H
H      0.76043  0.90366  0.00127     H
C      0.77764  0.74092  0.97774     C
C      0.77764  0.75912  0.47774     C
C      0.78294  0.08132  0.77184     C
C      0.78294  0.41868  0.27184     C
C      0.78414  0.64117  0.77104     C
C      0.78414  0.85883  0.27104     C
C      0.78444  0.64496  0.22784     C
C      0.78444  0.85504  0.72784     C
C      0.78834  0.62107  0.15724     C
C      0.78834  0.87893  0.65724     C
H      0.78876  0.07307  0.49468     H
H      0.78876  0.42693  0.99468     H
C      0.78934  0.61857  0.84524     C
C      0.78934  0.88143  0.34524     C
O      0.80264  0.74702  0.05714     O
O      0.80264  0.75298  0.55714     O
O      0.81584  0.04343  0.76722     O
O      0.81584  0.45657  0.26722     O
C      0.81674   0.5162  0.46984     C
C      0.81674   0.9838  0.96984     C
O      0.81894  0.10431  0.84042     O
O      0.81894  0.39569  0.34042     O
O      0.82312   0.0221  0.94092     O
O      0.82312   0.4779  0.44092     O
C      0.83864  0.63059  0.31214     C
C      0.83864  0.86941  0.81214     C
H      0.83868  0.64717  0.36007     H
H      0.83868  0.85283  0.86007     H
H       0.8389   0.6422  0.67865     H
H       0.8389   0.8578  0.17864     H
C      0.84004  0.62642  0.72784     C
C      0.84004  0.87358  0.22784     C
H      0.84298  0.70331  0.91551     H
H      0.84298  0.79669  0.41551     H
C      0.84414  0.58205  0.17044     C
C      0.84414  0.91795  0.67044     C
H      0.84594  0.74457  0.39784     H
H      0.84594  0.75543  0.89784     H
H      0.84718   0.6117  0.02268     H
H      0.84718   0.8883  0.52268     H
C      0.84864  0.58051  0.87494     C
C      0.84864  0.91949  0.37494     C
C      0.84944  0.55762  0.09714     C
C      0.84944  0.94238  0.59714     C
C      0.84964  0.58015  0.02424     C
C      0.84964  0.91985  0.52424     C
C      0.85255  0.73294  0.94185     C
C      0.85255  0.76714  0.44185     C
C      0.85354  0.55699  0.95454     C
C      0.85354  0.94301  0.45454     C
C      0.85464  0.51127  0.09764     C
C      0.85464  0.98873  0.59764     C
H      0.85539  0.00437  0.64682     H
H      0.85539  0.49563  0.14682     H
C      0.85565  0.06299  0.52874     C
C      0.85565  0.43701  0.02874     C
C      0.85724   0.5104  0.95744     C
C      0.85724   0.9896  0.45744     C
C      0.85854  0.01263  0.52944     C
C      0.85854  0.48737  0.02944     C
H      0.85887  0.00566  0.40954     H
H      0.85887  0.49434  0.90954     H
O      0.87312   0.5315  0.54072     O
O      0.87312   0.9685  0.04072     O
H      0.87697  0.07398  0.58811     H
H      0.87697  0.42602  0.08811     H
C      0.89294  0.59128  0.32504     C
C      0.89294  0.90872  0.82504     C
C      0.89514  0.56726  0.25564     C
C      0.89514  0.93274  0.75564     C
C      0.89814  0.58833  0.75604     C
C      0.89814  0.91167  0.25604     C
H      0.89915  0.07446  0.50291     H
H      0.89915  0.42554  0.00291     H
C      0.90124  0.56616  0.82824     C
C      0.90124  0.93384  0.32824     C
H      0.91781   0.7348  0.98841     H
H      0.91781   0.7652  0.48841     H
H      0.93157  0.54045  0.26591     H
H      0.93157  0.95955  0.76591     H
H      0.94053  0.54027  0.84664     H
H      0.94053  0.95973  0.34664     H
C      0.95224  0.57443  0.41514     C
C      0.95224  0.92557  0.91514     C
Eu     0.95492  0.04533  0.90419    Eu
Eu     0.95492  0.45467  0.40419    Eu
C      0.95854  0.57275  0.70914     C
C      0.95854  0.92725  0.20914     C
O      0.97182  0.53315  0.42532     O
O      0.97182  0.96685  0.92532     O
O      0.98134  0.60079  0.66302     O
O      0.98134  0.89921  0.16302     O
O      0.98154  0.60052  0.47832     O
O      0.98154  0.89948  0.97832     O
O      0.98594  0.53292  0.71602     O
O      0.98594  0.96708  0.21602     O
