data_I
_chemical_name_common  '/home/zhangsd/repos/MofS-CGCNN/CGCNN_MT/data/WS24v2_external_test/clean_cifs/val_25'
_cell_length_a  8.71171
_cell_length_b 10.57720
_cell_length_c 10.81690
_cell_angle_alpha 79.99770
_cell_angle_beta  67.06160
_cell_angle_gamma 86.91960
_space_group_name_H-M_alt      'P 1'


loop_
_space_group_symop_operation_xyz
  'x, y, z' 

loop_
_atom_site_label
_atom_site_fract_x
_atom_site_fract_y
_atom_site_fract_z
_atom_site_type_symbol
O      0.01184  0.77354  0.18834     O
C      0.01745  0.11414  0.79774     C
O      0.02874  0.67594  0.89174     O
C      0.04275  0.79284  0.84744     C
O      0.09061  0.53308  0.60427     O
C      0.09165  0.12064  0.08324     C
C      0.10035  0.98874  0.10824     C
H       0.1005   0.4527   0.6257     H
H       0.1215   0.9016    0.487     H
O      0.15014  0.07824  0.70404     O
H       0.1518   0.9928    0.717     H
O      0.16814  0.84344  0.74394     O
H       0.1717   0.4674   0.1166     H
Ba     0.17247  0.42832  0.83063    Ba
H       0.1769   0.5668   0.6044     H
O      0.18394  0.53264  0.05514     O
H       0.1989   0.7331   0.3652     H
C      0.22037  0.90725  0.41015     C
N      0.23134  0.17084  0.97344     N
N      0.24834  0.95864  0.01184     N
H       0.2646   0.5793   0.0474     H
C      0.26637  0.80645  0.33695     C
H       0.2879   0.0828    0.419     H
H       0.2985    0.885   0.0074     H
C      0.31977  0.01535  0.36975     C
H       0.3232   0.2299   0.6195     H
C      0.32385  0.06964  0.93464     C
O      0.34315  0.31024  0.59974     O
H        0.355   0.7138   0.6817     H
O      0.37937  0.64244  0.65345     O
C      0.41265  0.81484  0.22164     C
O      0.41414  0.72964  0.03324     O
H       0.4477   0.3223   0.5722     H
C      0.44885  0.70834  0.13794     C
C      0.46657  0.02415  0.25665     C
H       0.4666   0.9025   0.7701     H
H       0.4786   0.6244   0.6457     H
C      0.48415  0.07634  0.81874     C
O      0.49594  0.39504  0.82084     O
O      0.50414  0.60504  0.17924     O
C      0.51595  0.92374  0.18134     C
H       0.5214   0.3756   0.3543     H
H       0.5334   0.0975   0.2299     H
C      0.53357  0.97595  0.74345     C
C      0.55125  0.29174  0.86214     C
H       0.5523   0.6777   0.4278     H
O      0.58594  0.27044  0.96684     O
C      0.58745  0.18524  0.77844     C
O      0.62077  0.35764  0.34665     O
H        0.645   0.2862   0.3183     H
O      0.65695  0.68984  0.40034     O
C      0.67625  0.93044  0.06544     C
H       0.6768   0.7701   0.3805     H
C      0.68037  0.98475  0.63035     C
H       0.7015    0.115   0.9926     H
H       0.7121   0.9172    0.581     H
C      0.73377  0.19365  0.66315     C
H       0.7354   0.4207   0.9526     H
N      0.75174  0.04144  0.98824     N
N      0.76874  0.82924  0.02664     N
C      0.77977  0.09285  0.58995     C
H       0.8011   0.2669   0.6348     H
O      0.81614  0.46744  0.94494     O
H       0.8231   0.4332   0.3956     H
Ba     0.82753  0.57168  0.16937    Ba
H       0.8283   0.5326   0.8834     H
O      0.83194  0.15664  0.25614     O
H       0.8482   0.0072    0.283     H
O      0.84994  0.92184  0.29604     O
H       0.8785   0.0984    0.513     H
H       0.8995   0.5473   0.3743     H
C      0.89975  0.01134  0.89184     C
C      0.90845  0.87944  0.91684     C
O      0.90941  0.46708  0.39587     O
C      0.95735  0.20724  0.15264     C
O      0.97134  0.32414  0.10834     O
C      0.98265  0.88594  0.20234     C
O      0.98824  0.22654  0.81174     O
