data_I
_chemical_name_common  '/home/zhangsd/repos/MofS-CGCNN/CGCNN_MT/data/WS24v2_external_test/clean_cifs/val_42'
_cell_length_a 24.22650
_cell_length_b 19.39040
_cell_length_c 14.06040
_cell_angle_alpha 90.00000
_cell_angle_beta  98.64540
_cell_angle_gamma 90.00000
_space_group_name_H-M_alt      'P 1'


loop_
_space_group_symop_operation_xyz
  'x, y, z' 

loop_
_atom_site_label
_atom_site_fract_x
_atom_site_fract_y
_atom_site_fract_z
_atom_site_type_symbol
H       0.0243    0.102   0.6878     H
H       0.0243    0.898   0.1878     H
C      0.02534  0.11264  0.54675     C
C      0.02534  0.88744  0.04675     C
C      0.03684  0.11654  0.98717     C
C      0.03684  0.88354  0.48717     C
H       0.0464   0.1242   0.4167     H
H       0.0464   0.8758   0.9167     H
C      0.04734  0.10525  0.64087     C
C      0.04734  0.89485  0.14087     C
O      0.05122  0.11714  0.07634     O
O      0.05122  0.88294  0.57634     O
C      0.06154  0.11844  0.48115     C
C      0.06154  0.88164  0.98115     C
O      0.06892  0.11954  0.92695     O
O      0.06892  0.88054  0.42695     O
H       0.1005   0.2511   0.0439     H
H       0.1005   0.7489   0.5439     H
C      0.10564  0.10255  0.66587     C
C      0.10564  0.89755  0.16587     C
H       0.1085   0.1555   0.2919     H
H       0.1085   0.8445   0.7919     H
O      0.11178  0.11444  0.27414     O
O      0.11178  0.88564  0.77414     O
N      0.11762  0.11634  0.50384     N
N      0.11762  0.88374  0.00384     N
H       0.1215   0.0973   0.7298     H
H       0.1215   0.9027   0.2298     H
Zn     0.12784   0.1162  0.14324    Zn
Zn     0.12784   0.8838  0.64324    Zn
H       0.1373   0.3586   0.0303     H
H       0.1373   0.6414   0.5303     H
C      0.13764  0.25855  0.06988     C
C      0.13764  0.74155  0.56988     C
O      0.13802  0.25074  0.39215     O
O      0.13802  0.74934  0.89215     O
C      0.13874  0.10764  0.59625     C
C      0.13874  0.89244  0.09625     C
H       0.1396   0.0242   0.9061     H
H       0.1396   0.9758   0.4061     H
H       0.1448   0.3749     0.33     H
H       0.1448   0.6251     0.83     H
C      0.15974  0.32325  0.05938     C
C      0.15974  0.67685  0.55938     C
O      0.16022  0.02834  0.11684     O
O      0.16022  0.97174  0.61684     O
Zn     0.16341    0.123  0.39283    Zn
Zn     0.16341    0.877  0.89283    Zn
N      0.16632  0.20534  0.11535     N
N      0.16632  0.79474  0.61535     N
H       0.1719   0.4628   0.0793     H
H       0.1719   0.5372   0.5793     H
C      0.17804  0.02705  0.90805     C
C      0.17804  0.97305  0.40805     C
H       0.1789   0.1281   0.9094     H
H       0.1789   0.8719   0.4094     H
C      0.18354  0.37824  0.34237     C
C      0.18354  0.62184  0.84237     C
H       0.1862   0.4775   0.3098     H
H       0.1862   0.5225   0.8098     H
C      0.18824  0.25264  0.38467     C
C      0.18824  0.74744  0.88467     C
C      0.20134  0.08924  0.91035     C
C      0.20134  0.91084  0.41035     C
C      0.20204  0.10874  0.62145     C
C      0.20204  0.89134  0.12145     C
H       0.2054   0.2091   0.5928     H
H       0.2054   0.7909   0.0928     H
N      0.20742  0.03244  0.40834     N
N      0.20742  0.96764  0.90834     N
C      0.20844  0.43984  0.33115     C
C      0.20844  0.56024  0.83115     C
C      0.21054  0.46454  0.08287     C
C      0.21054  0.53554  0.58287     C
C      0.21084  0.01884  0.15575     C
C      0.21084  0.98124  0.65575     C
C      0.21424  0.32134  0.37135     C
C      0.21424  0.67874  0.87135     C
C      0.21594  0.33454  0.09265     C
C      0.21594  0.66554  0.59265     C
H       0.2167   0.4326    0.581     H
H       0.2167   0.5674    0.081     H
O      0.21692  0.19914  0.38524     O
O      0.21692  0.80094  0.88524     O
H       0.2183   0.2155   0.8413     H
H       0.2183   0.7845   0.3413     H
C      0.21954  0.21724  0.14587     C
C      0.21954  0.78284  0.64587     C
C      0.22754  0.17084  0.61165     C
C      0.22754  0.82924  0.11165     C
C      0.23424  0.05174  0.64955     C
C      0.23424  0.94834  0.14955     C
C      0.23784  0.47284  0.58487     C
C      0.23784  0.52724  0.08487     C
O      0.23942  0.06414  0.20075     O
O      0.23942  0.93594  0.70075     O
H       0.2413   0.1817   0.1757     H
H       0.2413   0.8183   0.6757     H
C      0.24194  0.40314  0.08605     C
C      0.24194  0.59694  0.58605     C
C      0.24394  0.27955  0.13537     C
C      0.24394  0.72055  0.63537     C
C      0.25614  0.22055  0.86477     C
C      0.25614  0.77955  0.36477     C
C      0.25814  0.09694  0.91405     C
C      0.25814  0.90314  0.41405     C
H       0.2587   0.3183   0.8243     H
H       0.2587   0.6817   0.3243     H
O      0.26062  0.43594  0.79935     O
O      0.26062  0.56414  0.29935     O
C      0.26224  0.02724  0.41527     C
C      0.26224  0.97284  0.91527     C
C      0.26584  0.44834  0.35055     C
C      0.26584  0.55174  0.85055     C
C      0.27254  0.32924  0.38845     C
C      0.27254  0.67084  0.88845     C
C      0.28054  0.28284  0.85427     C
C      0.28054  0.71724  0.35427     C
H       0.2817   0.2845   0.1587     H
H       0.2817   0.7155   0.6587     H
O      0.28312  0.30094  0.61484     O
O      0.28312  0.69914  0.11484     O
H       0.2833   0.0674    0.419     H
H       0.2833   0.9326    0.919     H
C      0.28414  0.16554  0.90745     C
C      0.28414  0.83454  0.40745     C
C      0.28584  0.17874  0.62875     C
C      0.28584  0.82134  0.12875     C
C      0.28924  0.48124  0.84435     C
C      0.28924  0.51884  0.34435     C
C      0.28954  0.03554  0.91727     C
C      0.28954  0.96454  0.41727     C
C      0.29164  0.06024  0.66895     C
C      0.29164  0.93984  0.16895     C
N      0.29262  0.46764  0.59174     N
N      0.29262  0.53244  0.09174     N
H       0.2946   0.2909   0.4072     H
H       0.2946   0.7091   0.9072     H
C      0.29804  0.39134  0.37865     C
C      0.29804  0.60874  0.87865     C
C      0.29874  0.41084  0.08975     C
C      0.29874  0.58924  0.58975     C
C      0.31184  0.24744  0.61547     C
C      0.31184  0.75264  0.11547     C
H       0.3138   0.0225   0.6902     H
H       0.3138   0.9775   0.1902     H
C      0.31654  0.12184  0.65777     C
C      0.31654  0.87824  0.15777     C
H       0.3211   0.3719   0.0906     H
H       0.3211   0.6281   0.5906     H
C      0.32204  0.47305  0.09205     C
C      0.32204  0.52705  0.59205     C
H       0.3281   0.0372   0.9207     H
H       0.3281   0.9628   0.4207     H
N      0.33372  0.29474  0.88475     N
N      0.33372  0.70534  0.38475     N
Zn     0.33659    0.377  0.60719    Zn
Zn     0.33659    0.623  0.10719    Zn
O      0.33982  0.47174  0.88324     O
O      0.33982  0.52834  0.38324     O
C      0.34034  0.17685  0.94078     C
C      0.34034  0.82325  0.44078     C
H       0.3552   0.1251     0.67     H
H       0.3552   0.8749     0.17     H
H       0.3604   0.4758   0.0939     H
H       0.3604   0.5242   0.5939     H
C      0.36134  0.39244  0.40385     C
C      0.36134  0.60764  0.90385     C
O      0.36202  0.24934  0.60795     O
O      0.36202  0.75074  0.10795     O
C      0.36244  0.24155  0.93028     C
C      0.36244  0.75855  0.43028     C
H       0.3627   0.1414   0.9697     H
H       0.3627   0.8586   0.4697     H
Zn     0.37216   0.3838  0.85678    Zn
Zn     0.37216   0.6162  0.35678    Zn
H       0.3785   0.4027   0.2702     H
H       0.3785   0.5973   0.7702     H
N      0.38242  0.38374  0.49624     N
N      0.38242  0.61634  0.99624     N
O      0.38822  0.38564  0.72594     O
O      0.38822  0.61444  0.22594     O
H       0.3915   0.3445   0.7081     H
H       0.3915   0.6555   0.2081     H
C      0.39444  0.39755  0.33427     C
C      0.39444  0.60255  0.83427     C
H       0.3995   0.2489   0.9561     H
H       0.3995   0.7511   0.4561     H
O      0.43112  0.38054  0.07315     O
O      0.43112  0.61954  0.57315     O
C      0.43854  0.38164  0.51895     C
C      0.43854  0.61844  0.01895     C
O      0.44882  0.38294  0.92374     O
O      0.44882  0.61714  0.42374     O
C      0.45274  0.39485  0.35927     C
C      0.45274  0.60525  0.85927     C
H       0.4536   0.3758   0.5833     H
H       0.4536   0.6242   0.0833     H
C      0.46324  0.38354  0.01297     C
C      0.46324  0.61654  0.51297     C
C      0.47474  0.38744  0.45335     C
C      0.47474  0.61264  0.95335     C
H       0.4757    0.398   0.3122     H
H       0.4757    0.602   0.8122     H
H       0.5243    0.398   0.1878     H
H       0.5243    0.602   0.6878     H
C      0.52534  0.38744  0.04675     C
C      0.52534  0.61264  0.54675     C
C      0.53684  0.38354  0.48717     C
C      0.53684  0.61654  0.98717     C
H       0.5464   0.3758   0.9167     H
H       0.5464   0.6242   0.4167     H
C      0.54734  0.39485  0.14087     C
C      0.54734  0.60525  0.64087     C
O      0.55122  0.38294  0.57634     O
O      0.55122  0.61714  0.07634     O
C      0.56154  0.38164  0.98115     C
C      0.56154  0.61844  0.48115     C
O      0.56892  0.38054  0.42695     O
O      0.56892  0.61954  0.92695     O
H       0.6005   0.2489   0.5439     H
H       0.6005   0.7511   0.0439     H
C      0.60564  0.39755  0.16587     C
C      0.60564  0.60255  0.66587     C
H       0.6085   0.3445   0.7919     H
H       0.6085   0.6555   0.2919     H
O      0.61178  0.38564  0.77414     O
O      0.61178  0.61444  0.27414     O
N      0.61762  0.38374  0.00384     N
N      0.61762  0.61634  0.50384     N
H       0.6215   0.4027   0.2298     H
H       0.6215   0.5973   0.7298     H
Zn     0.62784   0.3838  0.64324    Zn
Zn     0.62784   0.6162  0.14324    Zn
H       0.6373   0.1414   0.5303     H
H       0.6373   0.8586   0.0303     H
C      0.63764  0.24155  0.56988     C
C      0.63764  0.75855  0.06988     C
O      0.63802  0.24934  0.89215     O
O      0.63802  0.75074  0.39215     O
C      0.63874  0.39244  0.09625     C
C      0.63874  0.60764  0.59625     C
H       0.6396   0.4758   0.4061     H
H       0.6396   0.5242   0.9061     H
H       0.6448   0.1251     0.83     H
H       0.6448   0.8749     0.33     H
C      0.65974  0.17685  0.55938     C
C      0.65974  0.82325  0.05938     C
O      0.66022  0.47174  0.61684     O
O      0.66022  0.52834  0.11684     O
Zn     0.66341    0.377  0.89283    Zn
Zn     0.66341    0.623  0.39283    Zn
N      0.66632  0.29474  0.61535     N
N      0.66632  0.70534  0.11535     N
H       0.6719   0.0372   0.5793     H
H       0.6719   0.9628   0.0793     H
C      0.67804  0.47305  0.40805     C
C      0.67804  0.52705  0.90805     C
H       0.6789   0.3719   0.4094     H
H       0.6789   0.6281   0.9094     H
C      0.68354  0.12184  0.84237     C
C      0.68354  0.87824  0.34237     C
H       0.6862   0.0225   0.8098     H
H       0.6862   0.9775   0.3098     H
C      0.68824  0.24744  0.88467     C
C      0.68824  0.75264  0.38467     C
C      0.70134  0.41084  0.41035     C
C      0.70134  0.58924  0.91035     C
C      0.70204  0.39134  0.12145     C
C      0.70204  0.60874  0.62145     C
H       0.7054   0.2909   0.0928     H
H       0.7054   0.7091   0.5928     H
N      0.70742  0.46764  0.90834     N
N      0.70742  0.53244  0.40834     N
C      0.70844  0.06024  0.83115     C
C      0.70844  0.93984  0.33115     C
C      0.71054  0.03554  0.58287     C
C      0.71054  0.96454  0.08287     C
C      0.71084  0.48124  0.65575     C
C      0.71084  0.51884  0.15575     C
C      0.71424  0.17874  0.87135     C
C      0.71424  0.82134  0.37135     C
C      0.71594  0.16554  0.59265     C
C      0.71594  0.83454  0.09265     C
H       0.7167   0.0674    0.081     H
H       0.7167   0.9326    0.581     H
O      0.71692  0.30094  0.88524     O
O      0.71692  0.69914  0.38524     O
H       0.7183   0.2845   0.3413     H
H       0.7183   0.7155   0.8413     H
C      0.71954  0.28284  0.64587     C
C      0.71954  0.71724  0.14587     C
C      0.72754  0.32924  0.11165     C
C      0.72754  0.67084  0.61165     C
C      0.73424  0.44834  0.14955     C
C      0.73424  0.55174  0.64955     C
C      0.73784  0.02724  0.08487     C
C      0.73784  0.97284  0.58487     C
O      0.73942  0.43594  0.70075     O
O      0.73942  0.56414  0.20075     O
H       0.7413   0.3183   0.6757     H
H       0.7413   0.6817   0.1757     H
C      0.74194  0.09694  0.58605     C
C      0.74194  0.90314  0.08605     C
C      0.74394  0.22055  0.63537     C
C      0.74394  0.77955  0.13537     C
C      0.75614  0.27955  0.36477     C
C      0.75614  0.72055  0.86477     C
C      0.75814  0.40314  0.41405     C
C      0.75814  0.59694  0.91405     C
H       0.7587   0.1817   0.3243     H
H       0.7587   0.8183   0.8243     H
O      0.76062  0.06414  0.29935     O
O      0.76062  0.93594  0.79935     O
C      0.76224  0.47284  0.91527     C
C      0.76224  0.52724  0.41527     C
C      0.76584  0.05174  0.85055     C
C      0.76584  0.94834  0.35055     C
C      0.77254  0.17084  0.88845     C
C      0.77254  0.82924  0.38845     C
C      0.78054  0.21724  0.35427     C
C      0.78054  0.78284  0.85427     C
H       0.7817   0.2155   0.6587     H
H       0.7817   0.7845   0.1587     H
O      0.78312  0.19914  0.11484     O
O      0.78312  0.80094  0.61484     O
H       0.7833   0.4326    0.919     H
H       0.7833   0.5674    0.419     H
C      0.78414  0.33454  0.40745     C
C      0.78414  0.66554  0.90745     C
C      0.78584  0.32134  0.12875     C
C      0.78584  0.67874  0.62875     C
C      0.78924  0.01884  0.34435     C
C      0.78924  0.98124  0.84435     C
C      0.78954  0.46454  0.41727     C
C      0.78954  0.53554  0.91727     C
C      0.79164  0.43984  0.16895     C
C      0.79164  0.56024  0.66895     C
N      0.79262  0.03244  0.09174     N
N      0.79262  0.96764  0.59174     N
H       0.7946   0.2091   0.9072     H
H       0.7946   0.7909   0.4072     H
C      0.79804  0.10874  0.87865     C
C      0.79804  0.89134  0.37865     C
C      0.79874  0.08924  0.58975     C
C      0.79874  0.91084  0.08975     C
C      0.81184  0.25264  0.11547     C
C      0.81184  0.74744  0.61547     C
H       0.8138   0.4775   0.1902     H
H       0.8138   0.5225   0.6902     H
C      0.81654  0.37824  0.15777     C
C      0.81654  0.62184  0.65777     C
H       0.8211   0.1281   0.5906     H
H       0.8211   0.8719   0.0906     H
C      0.82204  0.02705  0.59205     C
C      0.82204  0.97305  0.09205     C
H       0.8281   0.4628   0.4207     H
H       0.8281   0.5372   0.9207     H
N      0.83372  0.20534  0.38475     N
N      0.83372  0.79474  0.88475     N
Zn     0.83659    0.123  0.10719    Zn
Zn     0.83659    0.877  0.60719    Zn
O      0.83982  0.02834  0.38324     O
O      0.83982  0.97174  0.88324     O
C      0.84034  0.32325  0.44078     C
C      0.84034  0.67685  0.94078     C
H       0.8552   0.3749     0.17     H
H       0.8552   0.6251     0.67     H
H       0.8604   0.0242   0.5939     H
H       0.8604   0.9758   0.0939     H
C      0.86134  0.10764  0.90385     C
C      0.86134  0.89244  0.40385     C
O      0.86202  0.25074  0.10795     O
O      0.86202  0.74934  0.60795     O
C      0.86244  0.25855  0.43028     C
C      0.86244  0.74155  0.93028     C
H       0.8627   0.3586   0.4697     H
H       0.8627   0.6414   0.9697     H
Zn     0.87216   0.1162  0.35678    Zn
Zn     0.87216   0.8838  0.85678    Zn
H       0.8785   0.0973   0.7702     H
H       0.8785   0.9027   0.2702     H
N      0.88242  0.11634  0.99624     N
N      0.88242  0.88374  0.49624     N
O      0.88822  0.11444  0.22594     O
O      0.88822  0.88564  0.72594     O
H       0.8915   0.1555   0.2081     H
H       0.8915   0.8445   0.7081     H
C      0.89444  0.10255  0.83427     C
C      0.89444  0.89755  0.33427     C
H       0.8995   0.2511   0.4561     H
H       0.8995   0.7489   0.9561     H
O      0.93112  0.11954  0.57315     O
O      0.93112  0.88054  0.07315     O
C      0.93854  0.11844  0.01895     C
C      0.93854  0.88164  0.51895     C
O      0.94882  0.11714  0.42374     O
O      0.94882  0.88294  0.92374     O
C      0.95274  0.10525  0.85927     C
C      0.95274  0.89485  0.35927     C
H       0.9536   0.1242   0.0833     H
H       0.9536   0.8758   0.5833     H
C      0.96324  0.11654  0.51297     C
C      0.96324  0.88354  0.01297     C
C      0.97474  0.11264  0.95335     C
C      0.97474  0.88744  0.45335     C
H       0.9757    0.102   0.8122     H
H       0.9757    0.898   0.3122     H
