data_I
_chemical_name_common  '/home/zhangsd/repos/MofS-CGCNN/CGCNN_MT/data/WS24v2_external_test/clean_cifs/val_33'
_cell_length_a 13.03730
_cell_length_b 22.56120
_cell_length_c 19.43200
_cell_angle_alpha 90.00000
_cell_angle_beta  90.94900
_cell_angle_gamma 90.00000
_space_group_name_H-M_alt      'P 1'


loop_
_space_group_symop_operation_xyz
  'x, y, z' 

loop_
_atom_site_label
_atom_site_fract_x
_atom_site_fract_y
_atom_site_fract_z
_atom_site_type_symbol
H       0.0028   0.1764   0.1991     H
H       0.0028   0.3236   0.6991     H
C      0.00787  0.01664  0.09394     C
C      0.00787  0.48344  0.59394     C
C      0.01565  0.11902  0.27774     C
C      0.01565  0.38102  0.77774     C
H       0.0206   0.0988   0.0576     H
H       0.0206   0.4012   0.5576     H
C      0.02515  0.56774  0.43604     C
C      0.02515  0.93234  0.93604     C
H       0.0322   0.1603    0.437     H
H       0.0322   0.3397    0.937     H
H       0.0346   0.0625   0.8731     H
H       0.0346   0.4375   0.3731     H
O      0.03944  0.55272  0.10761     O
O      0.03944  0.94728  0.60761     O
O      0.04444  0.06201  0.52285     O
O      0.04444  0.43799  0.02285     O
C      0.04855  0.15104  0.22174     C
C      0.04855  0.34904  0.72174     C
H       0.0512   0.6231   0.2071     H
H       0.0512   0.8769   0.7071     H
C      0.05145  0.04492  0.37134     C
C      0.05145  0.45512  0.87134     C
H       0.0561     0.24   0.9171     H
H       0.0561     0.26   0.4171     H
C      0.05787  0.02824  0.89484     C
C      0.05787  0.47184  0.39484     C
H       0.0758   0.2103   0.7697     H
H       0.0758   0.2897   0.2697     H
H       0.0765   0.0126   0.1067     H
H       0.0765   0.4874   0.6067     H
C      0.08155  0.18112  0.46224     C
C      0.08155  0.31892  0.96224     C
C      0.08274  0.08122  0.31074     C
C      0.08274  0.41882  0.81074     C
H       0.0928   0.6321   0.7429     H
H       0.0928   0.8679   0.2429     H
C      0.09625  0.24094  0.45034     C
C      0.09625  0.25914  0.95034     C
H       0.1115   0.7359   0.6973     H
H       0.1115   0.7641   0.1973     H
H       0.1116   0.2064   0.6537     H
H       0.1116   0.2936   0.1537     H
O      0.11634  0.00969  0.39802     O
O      0.11634  0.49031  0.89802     O
C      0.12625  0.57354  0.45694     C
C      0.12625  0.92654  0.95694     C
Eu     0.13117  0.54257   0.0052    Eu
Eu     0.13117  0.95743   0.5052    Eu
C      0.13255  0.08602  0.52114     C
C      0.13255  0.41402  0.02114     C
H       0.1353   0.7346   0.5163     H
H       0.1353   0.7654   0.0163     H
C      0.13555  0.19194  0.75504     C
C      0.13555  0.30814  0.25504     C
C      0.13954  0.15302  0.51124     C
C      0.13954  0.34702  0.01124     C
O      0.13984  0.61778  0.91442     O
O      0.13984  0.88222  0.41442     O
C      0.14655  0.14644  0.19854     C
C      0.14655  0.35364  0.69854     C
O      0.15364  0.62665  0.48902     O
O      0.15364  0.87335  0.98902     O
C      0.15375  0.62214  0.72154     C
C      0.15375  0.87794  0.22154     C
C      0.15414  0.65904  0.95614     C
C      0.15414  0.84104  0.45614     C
O      0.15514  0.64928  0.02082     O
O      0.15514  0.85072  0.52082     O
H       0.1558   0.5376   0.7515     H
H       0.1558   0.9624   0.2515     H
C      0.15614  0.72992  0.47114     C
C      0.15614  0.77012  0.97114     C
C      0.15635  0.18914  0.68574     C
C      0.15635  0.31094  0.18574     C
C      0.16087  0.02354  0.91534     C
C      0.16087  0.47654  0.41534     C
H       0.1676   0.1684   0.1609     H
H       0.1676   0.3316   0.6609     H
C      0.16857  0.22764  0.98644     C
C      0.16857  0.27244  0.48644     C
C      0.17114  0.72072  0.93064     C
C      0.17114  0.77932  0.43064     C
H       0.1715   0.5257   0.1848     H
H       0.1715   0.9743   0.6848     H
C      0.17154  0.67404  0.44574     C
C      0.17154  0.82604  0.94574     C
C      0.17265  0.72454  0.67724     C
C      0.17265  0.77554  0.17724     C
H       0.1778   0.1874   0.9778     H
H       0.1778   0.3126   0.4778     H
C      0.18295  0.07662  0.28784     C
C      0.18295  0.42342  0.78784     C
C      0.19075  0.56634  0.72664     C
C      0.19075  0.93374  0.22664     C
H       0.1909    0.171   0.8498     H
H       0.1909    0.329   0.3498     H
C      0.19605  0.52844  0.44724     C
C      0.19605  0.97164  0.94724     C
C      0.20345  0.16744  0.80304     C
C      0.20345  0.33264  0.30304     C
C      0.20415  0.72884  0.86454     C
C      0.20415  0.77124  0.36454     C
H       0.2045   0.6967   0.1389     H
H       0.2045   0.8033   0.6389     H
C      0.20505 0.66666667  0.37934     C
C      0.20505  0.83344  0.87934     C
H       0.2057   0.0548   0.9078     H
H       0.2057   0.4452   0.4078     H
C      0.20715  0.66524  0.68394     C
C      0.20715  0.83484  0.18394     C
O      0.21154  0.05566  0.52432     O
O      0.21154  0.44434  0.02432     O
C      0.21225  0.18524  0.54754     C
C      0.21225  0.31484  0.04754     C
C      0.21305  0.10872  0.23174     C
C      0.21305  0.39132  0.73174     C
H       0.2151   0.6961   0.8365     H
H       0.2151   0.8039   0.3365     H
H       0.2166   0.6288    0.362     H
H       0.2166   0.8712    0.862     H
C      0.22105  0.71504  0.33924     C
C      0.22105  0.78504  0.83924     C
C      0.22665  0.24464  0.53494     C
C      0.22665  0.25544  0.03494     C
C      0.22745  0.73574  0.14214     C
C      0.22745  0.76434  0.64214     C
H       0.2293   0.0518   0.3105     H
H       0.2293   0.4482   0.8105     H
C      0.23955  0.53432  0.17514     C
C      0.23955  0.96572  0.67514     C
C      0.24275  0.16092  0.66444     C
C      0.24275  0.33912  0.16444     C
H       0.2435   0.7102   0.2943     H
H       0.2435   0.7898   0.7943     H
N      0.26404  0.54482  0.10962     N
N      0.26404  0.95522  0.60962     N
O      0.27354  0.15818  0.59752     O
O      0.27354  0.34182  0.09752     O
H       0.2763   0.2344   0.0596     H
H       0.2763   0.2656   0.5596     H
C      0.28155  0.55244  0.69414     C
C      0.28155  0.94764  0.19414     C
C      0.28894  0.13802  0.78124     C
C      0.28894  0.36202  0.28124     C
H         0.29   0.5273   0.2739     H
H         0.29   0.9727   0.7739     H
C      0.29705  0.64702  0.65254     C
C      0.29705  0.85302  0.15254     C
H       0.2991   0.5605    0.877     H
H       0.2991   0.9395    0.377     H
H       0.3063   0.5139   0.6981     H
H       0.3063   0.9861   0.1981     H
C      0.30725  0.53124  0.46914     C
C      0.30725  0.96884  0.96914     C
C      0.30794  0.13472  0.71194     C
C      0.30794  0.36532  0.21194     C
C      0.31007  0.53554  0.22924     C
C      0.31007  0.96454  0.72924     C
O      0.31124  0.09656  0.20772     O
O      0.31124  0.40344  0.70772     O
C      0.31935  0.74784  0.60984     C
C      0.31935  0.75224  0.10984     C
N      0.32004  0.55802  0.97714     N
N      0.32004  0.94202  0.47714     N
H       0.3315   0.1966    0.269     H
H       0.3315   0.3034    0.769     H
O      0.33174  0.56222  0.51932     O
O      0.33174  0.93782  0.01932     O
N      0.33494  0.59072  0.65792     N
N      0.33494  0.90932  0.15792     N
C      0.34895  0.56434  0.91154     C
C      0.34895  0.93574  0.41154     C
O      0.35304  0.12147  0.89522     O
O      0.35304  0.37853  0.39522     O
C      0.35525  0.68932  0.61414     C
C      0.35525  0.81072  0.11414     C
H       0.3557   0.6728   0.0671     H
H       0.3557   0.8272   0.5671     H
H       0.3619   0.0891   0.4448     H
H       0.3619   0.4109   0.9448     H
C      0.36385  0.55552  0.09604     C
C      0.36385  0.94452  0.59604     C
C      0.36405  0.11252  0.83144     C
C      0.36405  0.38752  0.33144     C
H       0.3655   0.1145   0.6969     H
H       0.3655   0.3855   0.1969     H
O      0.36874   0.5014  0.43504     O
O      0.36874   0.9986  0.93504     O
C      0.37675  0.14264  0.19364     C
C      0.37675  0.35744  0.69364     C
C      0.37787  0.71184  0.07204     C
C      0.37787  0.78824  0.57204     C
C      0.37815  0.19234  0.23364     C
C      0.37815  0.30774  0.73364     C
C      0.39395  0.56322  0.02544     C
C      0.39395  0.93682  0.52544     C
H       0.4084   0.0764   0.3344     H
H       0.4084   0.4236   0.8344     H
C      0.40897  0.54884  0.21544     C
C      0.40897  0.95124  0.71544     C
H       0.4112   0.0891   0.5702     H
H       0.4112   0.4109   0.0702     H
C      0.42985  0.08034  0.43485     C
C      0.42985  0.41974  0.93485     C
O      0.43784  0.03089  0.12292     O
O      0.43784  0.46911  0.62292     O
O      0.43894  0.08249  0.80867     O
O      0.43894  0.41751  0.30867     O
C      0.44015  0.55984  0.14804     C
C      0.44015  0.94024  0.64804     C
H       0.4405   0.7382   0.8443     H
H       0.4405   0.7618   0.3443     H
C      0.44295  0.13502  0.13904     C
C      0.44295  0.36502  0.63904     C
N      0.44304  0.67082  0.58392     N
N      0.44304  0.82922  0.08392     N
H       0.4433   0.1987   0.9721     H
H       0.4433   0.3013   0.4721     H
H       0.4438   0.6774   0.4107     H
H       0.4438   0.8226   0.9107     H
C      0.44584  0.08064  0.09454     C
C      0.44584  0.41944  0.59454     C
C      0.44897  0.23614  0.22124     C
C      0.44897  0.26394  0.72124     C
C      0.44897  0.57634  0.89244     C
C      0.44897  0.92374  0.39244     C
H        0.453   0.2311     0.75     H
H        0.453   0.2689     0.25     H
H       0.4569   0.5507   0.2513     H
H       0.4569   0.9493   0.7513     H
C      0.45765  0.07294  0.36944     C
C      0.45765  0.42714  0.86944     C
O      0.46024   0.0885  0.03142     O
O      0.46024   0.4115  0.53142     O
H       0.4653   0.5807   0.8463     H
H       0.4653   0.9193   0.3463     H
C      0.46607  0.72954  0.04294     C
C      0.46607  0.77054  0.54294     C
C      0.47875  0.08134  0.55814     C
C      0.47875  0.41874  0.05814     C
C      0.48577  0.73134  0.33425     C
C      0.48577  0.76874  0.83425     C
C      0.48865  0.68094  0.37414     C
C      0.48865  0.81914  0.87414     C
Eu     0.49092  0.56148    0.579    Eu
Eu     0.49092  0.93852    0.079    Eu
H       0.4939   0.2025   0.4809     H
H       0.4939   0.2975   0.9809     H
C      0.49675  0.71074  0.54904     C
C      0.49675  0.78934  0.04904     C
C      0.49695  0.57492  0.01114     C
C      0.49695  0.92512  0.51114     C
C      0.50315  0.07492  0.48894     C
C      0.50315  0.42512  0.98894     C
C      0.50335  0.21074  0.95104     C
C      0.50335  0.28934  0.45104     C
H       0.5061   0.7025   0.0191     H
H       0.5061   0.7975   0.5191     H
Eu     0.50908  0.06148    0.921    Eu
Eu     0.50908  0.43852    0.421    Eu
C      0.51145  0.18094  0.12594     C
C      0.51145  0.31914  0.62594     C
C      0.51437  0.23134  0.16585     C
C      0.51437  0.26874  0.66585     C
C      0.52135  0.58134  0.94194     C
C      0.52135  0.91874  0.44194     C
C      0.53407  0.22954  0.45714     C
C      0.53407  0.27054  0.95714     C
H       0.5347   0.0807   0.6537     H
H       0.5347   0.4193   0.1537     H
O      0.53984   0.5885  0.46862     O
O      0.53984   0.9115  0.96862     O
C      0.54245  0.57294  0.13064     C
C      0.54245  0.92714  0.63064     C
H       0.5431   0.0507   0.2487     H
H       0.5431   0.4493   0.7487     H
H        0.547   0.7311     0.75     H
H        0.547   0.7689     0.25     H
C      0.55117  0.07634  0.60764     C
C      0.55117  0.42374  0.10764     C
C      0.55117  0.73614  0.27884     C
C      0.55117  0.76394  0.77884     C
C      0.55424  0.58064  0.40554     C
C      0.55424  0.91944  0.90554     C
H       0.5562   0.1774   0.0893     H
H       0.5562   0.3226   0.5893     H
H       0.5567   0.6987   0.5279     H
H       0.5567   0.8013   0.0279     H
N      0.55704  0.17082  0.91612     N
N      0.55704  0.32922  0.41612     N
C      0.55715  0.63502  0.36104     C
C      0.55715  0.86502  0.86104     C
H       0.5595   0.2382   0.6557     H
H       0.5595   0.2618   0.1557     H
C      0.55995  0.05984  0.35204     C
C      0.55995  0.44024  0.85204     C
O      0.56114  0.58249  0.69133     O
O      0.56114  0.91751  0.19133     O
O      0.56224  0.53089  0.37712     O
O      0.56224  0.96911  0.87712     O
C      0.57025  0.58034  0.06525     C
C      0.57025  0.91974  0.56525     C
H       0.5888   0.5891   0.9298     H
H       0.5888   0.9109   0.4298     H
C      0.59117  0.04884  0.28464     C
C      0.59117  0.45124  0.78464     C
H       0.5916   0.5764   0.1656     H
H       0.5916   0.9236   0.6656     H
C      0.60615  0.06322  0.47464     C
C      0.60615  0.43682  0.97464     C
C      0.62195  0.69234  0.26644     C
C      0.62195  0.80774  0.76644     C
C      0.62227  0.21184  0.42804     C
C      0.62227  0.28824  0.92804     C
C      0.62335  0.64264  0.30644     C
C      0.62335  0.85744  0.80644     C
O      0.63134   0.0014  0.06504     O
O      0.63134   0.4986  0.56504     O
H       0.6345   0.6145   0.8031     H
H       0.6345   0.8855   0.3031     H
C      0.63605  0.61252  0.66864     C
C      0.63605  0.88752  0.16864     C
C      0.63625  0.05552  0.40404     C
C      0.63625  0.44452  0.90404     C
H       0.6381   0.5891   0.0552     H
H       0.6381   0.9109   0.5552     H
H       0.6443   0.1728   0.4329     H
H       0.6443   0.3272   0.9329     H
C      0.64485  0.18932  0.88594     C
C      0.64485  0.31072  0.38594     C
O      0.64704  0.62147  0.60482     O
O      0.64704  0.87853  0.10482     O
C      0.65115  0.06434  0.58854     C
C      0.65115  0.43574  0.08854     C
N      0.66514  0.09072  0.84212     N
N      0.66514  0.40932  0.34212     N
O      0.66834  0.06222  0.98072     O
O      0.66834  0.43782  0.48072     O
H       0.6685   0.6966    0.231     H
H       0.6685   0.8034    0.731     H
N      0.68004  0.05802  0.52294     N
N      0.68004  0.44202  0.02294     N
C      0.68075  0.24784  0.89024     C
C      0.68075  0.25224  0.39024     C
O      0.68884  0.59656  0.29232     O
O      0.68884  0.90344  0.79232     O
C      0.69007  0.03554  0.27084     C
C      0.69007  0.46454  0.77084     C
C      0.69214  0.63472  0.78814     C
C      0.69214  0.86532  0.28814     C
C      0.69285  0.03124  0.03094     C
C      0.69285  0.46884  0.53094     C
H       0.6937   0.0139   0.8019     H
H       0.6937   0.4861   0.3019     H
H       0.7009   0.0605    0.623     H
H       0.7009   0.4395    0.123     H
C      0.70305  0.14702  0.84754     C
C      0.70305  0.35302  0.34754     C
H         0.71   0.0273   0.2261     H
H         0.71   0.4727   0.7261     H
C      0.71114  0.63802  0.71884     C
C      0.71114  0.86202  0.21884     C
C      0.71855  0.05244  0.80594     C
C      0.71855  0.44764  0.30594     C
H       0.7237   0.7344   0.4404     H
H       0.7237   0.7656   0.9404     H
O      0.72654  0.65818  0.90252     O
O      0.72654  0.84182  0.40252     O
N      0.73604  0.04482  0.39042     N
N      0.73604  0.45522  0.89042     N
H       0.7565   0.2102   0.2057     H
H       0.7565   0.2898   0.7057     H
C      0.75735  0.66092  0.83564     C
C      0.75735  0.83912  0.33564     C
C      0.76055  0.03432  0.32494     C
C      0.76055  0.46572  0.82494     C
H       0.7707   0.5518   0.1895     H
H       0.7707   0.9482   0.6895     H
C      0.77265  0.23574  0.35794     C
C      0.77265  0.26434  0.85794     C
C      0.77345  0.74464  0.96514     C
C      0.77345  0.75544  0.46514     C
C      0.77905  0.21504  0.16084     C
C      0.77905  0.28504  0.66084     C
H       0.7834   0.1288    0.138     H
H       0.7834   0.3712    0.638     H
H       0.7849   0.1961   0.6635     H
H       0.7849   0.3039   0.1635     H
C      0.78705  0.60872  0.26834     C
C      0.78705  0.89132  0.76834     C
C      0.78785  0.68524  0.95254     C
C      0.78785  0.81484  0.45254     C
O      0.78854  0.55566  0.97572     O
O      0.78854  0.94434  0.47572     O
C      0.79295  0.16524  0.81614     C
C      0.79295  0.33484  0.31614     C
H       0.7943   0.5548   0.5922     H
H       0.7943   0.9452   0.0922     H
C      0.79505  0.16664  0.12074     C
C      0.79505  0.33344  0.62074     C
H       0.7955   0.1967   0.3611     H
H       0.7955   0.3033   0.8611     H
C      0.79595  0.22884  0.63554     C
C      0.79595  0.27124  0.13554     C
C      0.79665  0.66744  0.69704     C
C      0.79665  0.83264  0.19704     C
C      0.80405  0.02844  0.05284     C
C      0.80405  0.47164  0.55284     C
H       0.8091    0.671   0.6502     H
H       0.8091    0.829   0.1502     H
C      0.80935  0.06634  0.77344     C
C      0.80935  0.43374  0.27344     C
C      0.81715  0.57662  0.21224     C
C      0.81715  0.92342  0.71224     C
H       0.8222   0.6874   0.5222     H
H       0.8222   0.8126   0.0222     H
C      0.82745  0.22454  0.82284     C
C      0.82745  0.27554  0.32284     C
H       0.8285   0.0257   0.3152     H
H       0.8285   0.4743   0.8152     H
C      0.82854  0.17404  0.05434     C
C      0.82854  0.32604  0.55434     C
C      0.82894  0.22072  0.56944     C
C      0.82894  0.27932  0.06944     C
C      0.83157  0.72764  0.51364     C
C      0.83157  0.77244  0.01364     C
H       0.8324   0.6684   0.3391     H
H       0.8324   0.8316   0.8391     H
C      0.83927  0.52354  0.58474     C
C      0.83927  0.97654  0.08474     C
C      0.84375  0.68914  0.81434     C
C      0.84375  0.81094  0.31434     C
C      0.84394  0.22992  0.02894     C
C      0.84394  0.27012  0.52894     C
H       0.8442   0.0376   0.7485     H
H       0.8442   0.4624   0.2485     H
O      0.84494  0.14928  0.47922     O
O      0.84494  0.35072  0.97922     O
C      0.84594  0.15904  0.54394     C
C      0.84594  0.34104  0.04394     C
C      0.84635  0.12214  0.77854     C
C      0.84635  0.37794  0.27854     C
O      0.84644  0.12665  0.01102     O
O      0.84644  0.37335  0.51102     O
C      0.85355  0.64644  0.30154     C
C      0.85355  0.85364  0.80154     C
O      0.86024  0.11778  0.58562     O
O      0.86024  0.38222  0.08562     O
C      0.86054  0.65302  0.98884     C
C      0.86054  0.84702  0.48884     C
C      0.86455  0.69194  0.74504     C
C      0.86455  0.80814  0.24504     C
H       0.8647   0.2346   0.9837     H
H       0.8647   0.2654   0.4837     H
C      0.86755  0.58602  0.97894     C
C      0.86755  0.91402  0.47894     C
Eu     0.86883  0.04257   0.4948    Eu
Eu     0.86883  0.45743   0.9948    Eu
C      0.87385  0.07354  0.04314     C
C      0.87385  0.42654  0.54314     C
O      0.88374  0.50969  0.10198     O
O      0.88374  0.99031  0.60198     O
H       0.8884   0.7064   0.8463     H
H       0.8884   0.7936   0.3463     H
H       0.8885   0.2359   0.8027     H
H       0.8885   0.2641   0.3027     H
C      0.90385  0.74094  0.04974     C
C      0.90385  0.75914  0.54974     C
H       0.9072   0.1321   0.7571     H
H       0.9072   0.3679   0.2571     H
C      0.91734  0.58122  0.18934     C
C      0.91734  0.91882  0.68934     C
C      0.91855  0.68112  0.03784     C
C      0.91855  0.81892  0.53784     C
H       0.9235   0.5126   0.3933     H
H       0.9235   0.9874   0.8933     H
H       0.9242   0.7103   0.7303     H
H       0.9242   0.7897   0.2303     H
C      0.94227  0.52824  0.60524     C
C      0.94227  0.97184  0.10524     C
H       0.9439     0.74   0.5829     H
H       0.9439     0.76   0.0829     H
C      0.94865  0.54492  0.12874     C
C      0.94865  0.95512  0.62874     C
H       0.9488   0.1231   0.2929     H
H       0.9488   0.3769   0.7929     H
C      0.95155  0.65104  0.27834     C
C      0.95155  0.84904  0.77834     C
O      0.95564  0.56201  0.97715     O
O      0.95564  0.93799  0.47715     O
O      0.96064  0.05272  0.39239     O
O      0.96064  0.44728  0.89239     O
H       0.9654   0.5625   0.6269     H
H       0.9654   0.9375   0.1269     H
H       0.9678   0.6603    0.063     H
H       0.9678   0.8397    0.563     H
C      0.97495  0.06774  0.06404     C
C      0.97495  0.43234  0.56404     C
H       0.9794   0.5988   0.4424     H
H       0.9794   0.9012   0.9424     H
C      0.98445  0.61902  0.22234     C
C      0.98445  0.88102  0.72234     C
C      0.99227  0.51664  0.40614     C
C      0.99227  0.98344  0.90614     C
H       0.9972   0.6764   0.3009     H
H       0.9972   0.8236   0.8009     H
